<?xml version="1.0" encoding="UTF-8"?>

<!-- generated on 2023-04-21 14:57:35 by Eclipse SUMO duarouter Version 1.16.0
<configuration xmlns:xsi="http://www.w3.org/2001/XMLSchema-instance" xsi:noNamespaceSchemaLocation="http://sumo.dlr.de/xsd/duarouterConfiguration.xsd">

    <input>
        <net-file value=".\test2.net.xml"/>
        <route-files value=".\trips.trips.xml"/>
    </input>

    <output>
        <output-file value="dua.rou.xml"/>
    </output>

    <report>
        <ignore-errors value="true"/>
    </report>

</configuration>
-->

<routes xmlns:xsi="http://www.w3.org/2001/XMLSchema-instance" xsi:noNamespaceSchemaLocation="http://sumo.dlr.de/xsd/routes_file.xsd">
    <vehicle id="0" depart="0.00">
        <route edges="4_2i 4_3o r5_4_1 1_1i 1_0o r1_1_0 0_1i 0_0o"/>
    </vehicle>
    <vehicle id="1" depart="1.00">
        <route edges="1_3i 1_2o r2_1_2 2_0i 2_0o r2_2_1 1_2i"/>
    </vehicle>
    <vehicle id="2" depart="2.00">
        <route edges="4_3o r5_4_1 1_1i 1_1o r5_1_4 4_3i 4_2o"/>
    </vehicle>
    <vehicle id="3" depart="3.00">
        <route edges="r3_3_2 2_1i 2_0o r2_2_1 1_2i 1_0o r1_1_0 0_1i 0_2o"/>
    </vehicle>
    <vehicle id="4" depart="4.00">
        <route edges="3_0i 3_3o r3_3_2 2_1i 2_0o r2_2_1 1_2i 1_0o r1_1_0 0_1i"/>
    </vehicle>
    <vehicle id="5" depart="5.00">
        <route edges="1_2i 1_1o r5_1_4 4_3i 4_2o r4_4_3 3_0i 3_2o"/>
    </vehicle>
    <vehicle id="6" depart="6.00">
        <route edges="0_1i 0_1o r1_0_1 1_0i 1_1o"/>
    </vehicle>
    <vehicle id="7" depart="7.00">
        <route edges="4_2i 4_2o r4_4_3 3_0i 3_3o r3_3_2 2_1i 2_1o r3_2_3 3_3i"/>
    </vehicle>
    <vehicle id="8" depart="8.00">
        <route edges="1_2i 1_1o r5_1_4 4_3i 4_0o"/>
    </vehicle>
    <vehicle id="9" depart="9.00">
        <route edges="r2_1_2 2_0i 2_0o r2_2_1 1_2i 1_0o r1_1_0 0_1i 0_0o"/>
    </vehicle>
    <vehicle id="10" depart="10.00">
        <route edges="r2_1_2 2_0i 2_0o r2_2_1 1_2i 1_1o r5_1_4 4_3i"/>
    </vehicle>
    <vehicle id="11" depart="11.00">
        <route edges="2_0o r2_2_1 1_2i 1_0o"/>
    </vehicle>
    <vehicle id="12" depart="12.00">
        <route edges="r5_1_4 4_3i 4_2o r4_4_3 3_0i 3_3o r3_3_2 2_1i 2_0o"/>
    </vehicle>
    <vehicle id="13" depart="13.00">
        <route edges="0_2i 0_2o"/>
    </vehicle>
    <vehicle id="14" depart="14.00">
        <route edges="r3_2_3 3_3i 3_0o r4_3_4 4_2i 4_0o"/>
    </vehicle>
    <vehicle id="15" depart="15.00">
        <route edges="r2_1_2 2_0i 2_0o r2_2_1 1_2i 1_1o r5_1_4 4_3i 4_3o"/>
    </vehicle>
    <vehicle id="16" depart="16.00">
        <route edges="3_3i 3_3o r3_3_2 2_1i 2_0o r2_2_1 1_2i 1_1o r5_1_4"/>
    </vehicle>
    <vehicle id="17" depart="17.00">
        <route edges="2_1o r3_2_3 3_3i"/>
    </vehicle>
    <vehicle id="18" depart="18.00">
        <route edges="r2_2_1 1_2i 1_1o r5_1_4 4_3i 4_1o"/>
    </vehicle>
    <vehicle id="19" depart="19.00">
        <route edges="r3_2_3 3_3i 3_3o"/>
    </vehicle>
    <vehicle id="20" depart="20.00">
        <route edges="4_3i 4_3o r5_4_1 1_1i 1_0o r1_1_0 0_1i"/>
    </vehicle>
    <vehicle id="21" depart="21.00">
        <route edges="1_2i 1_3o"/>
    </vehicle>
    <vehicle id="22" depart="22.00">
        <route edges="0_2i 0_1o r1_0_1 1_0i 1_2o r2_1_2 2_0i 2_0o r2_2_1 1_2i"/>
    </vehicle>
    <vehicle id="23" depart="23.00">
        <route edges="0_2i 0_1o r1_0_1 1_0i 1_3o"/>
    </vehicle>
    <vehicle id="24" depart="24.00">
        <route edges="4_2i 4_2o r4_4_3 3_0i 3_3o r3_3_2 2_1i"/>
    </vehicle>
    <vehicle id="25" depart="25.00">
        <route edges="2_1o r3_2_3 3_3i 3_3o r3_3_2 2_1i 2_0o r2_2_1 1_2i 1_1o"/>
    </vehicle>
    <vehicle id="26" depart="26.00">
        <route edges="1_3i 1_1o r5_1_4 4_3i 4_2o r4_4_3"/>
    </vehicle>
    <vehicle id="27" depart="27.00">
        <route edges="4_2i 4_1o"/>
    </vehicle>
    <vehicle id="28" depart="28.00">
        <route edges="1_1i 1_1o r5_1_4 4_3i 4_3o"/>
    </vehicle>
    <vehicle id="29" depart="29.00">
        <route edges="1_1i 1_2o r2_1_2 2_0i 2_1o"/>
    </vehicle>
    <vehicle id="30" depart="30.00">
        <route edges="r5_4_1 1_1i 1_1o r5_1_4 4_3i 4_2o r4_4_3 3_0i 3_0o r4_3_4 4_2i"/>
    </vehicle>
    <vehicle id="31" depart="31.00">
        <route edges="3_3o r3_3_2 2_1i 2_0o r2_2_1 1_2i 1_1o r5_1_4 4_3i"/>
    </vehicle>
    <vehicle id="32" depart="32.00">
        <route edges="r3_2_3 3_3i 3_3o r3_3_2 2_1i 2_0o r2_2_1 1_2i 1_0o r1_1_0"/>
    </vehicle>
    <vehicle id="33" depart="33.00">
        <route edges="1_2i 1_0o r1_1_0 0_1i"/>
    </vehicle>
    <vehicle id="34" depart="34.00">
        <route edges="2_0i 2_0o r2_2_1 1_2i 1_3o"/>
    </vehicle>
    <vehicle id="35" depart="35.00">
        <route edges="1_2i 1_1o r5_1_4 4_3i 4_2o r4_4_3"/>
    </vehicle>
    <vehicle id="36" depart="36.00">
        <route edges="r3_3_2 2_1i 2_0o r2_2_1 1_2i 1_2o r2_1_2 2_0i"/>
    </vehicle>
    <vehicle id="37" depart="37.00">
        <route edges="4_2i 4_2o r4_4_3 3_0i 3_3o r3_3_2 2_1i 2_2o"/>
    </vehicle>
    <vehicle id="38" depart="38.00">
        <route edges="r4_3_4 4_2i 4_2o r4_4_3 3_0i 3_0o"/>
    </vehicle>
    <vehicle id="39" depart="39.00">
        <route edges="1_3i 1_2o"/>
    </vehicle>
    <vehicle id="40" depart="40.00">
        <route edges="3_3o r3_3_2 2_1i 2_0o r2_2_1 1_2i 1_2o"/>
    </vehicle>
    <vehicle id="41" depart="41.00">
        <route edges="4_0i 4_2o r4_4_3 3_0i 3_0o r4_3_4"/>
    </vehicle>
    <vehicle id="42" depart="42.00">
        <route edges="2_2i 2_0o r2_2_1 1_2i"/>
    </vehicle>
    <vehicle id="43" depart="43.00">
        <route edges="r5_4_1 1_1i 1_1o r5_1_4 4_3i 4_2o r4_4_3 3_0i 3_2o"/>
    </vehicle>
    <vehicle id="44" depart="44.00">
        <route edges="0_2i 0_1o r1_0_1 1_0i 1_0o r1_1_0 0_1i"/>
    </vehicle>
    <vehicle id="45" depart="45.00">
        <route edges="1_0i 1_1o r5_1_4 4_3i 4_1o"/>
    </vehicle>
    <vehicle id="46" depart="46.00">
        <route edges="r2_1_2 2_0i 2_0o r2_2_1 1_2i 1_1o r5_1_4 4_3i 4_2o r4_4_3 3_0i"/>
    </vehicle>
    <vehicle id="47" depart="47.00">
        <route edges="0_1o r1_0_1 1_0i 1_2o r2_1_2 2_0i 2_1o"/>
    </vehicle>
    <vehicle id="48" depart="48.00">
        <route edges="r5_4_1 1_1i 1_2o r2_1_2 2_0i 2_1o r3_2_3 3_3i"/>
    </vehicle>
    <vehicle id="49" depart="49.00">
        <route edges="r5_1_4 4_3i 4_2o r4_4_3 3_0i 3_3o r3_3_2 2_1i 2_1o r3_2_3"/>
    </vehicle>
</routes>
