<edges>
    <edge id="R109i" from="R109" to="0"/>
    <edge id="R109o" from="0" to="R109"/>
    <edge id="R106i" from="R106" to="0"/>
    <edge id="R106o" from="0" to="R106"/>
    <edge id="R104i" from="R104" to="0"/>
    <edge id="R104o" from="0" to="R104"/>
    <edge id="R99i" from="R99" to="1"/>
    <edge id="R99o" from="1" to="R99"/>
    <edge id="R91i" from="R91" to="2"/>
    <edge id="R91o" from="2" to="R91"/>
    <edge id="R81i" from="R81" to="3"/>
    <edge id="R81o" from="3" to="R81"/>
    <edge id="R67i" from="R67" to="4"/>
    <edge id="R67o" from="4" to="R67"/>
    <edge id="R66i" from="R66" to="4"/>
    <edge id="R66o" from="4" to="R66"/>
    <edge id="R69i" from="R69" to="5"/>
    <edge id="R69o" from="5" to="R69"/>
    <edge id="R72i" from="R72" to="6"/>
    <edge id="R72o" from="6" to="R72"/>
    <edge id="R62i" from="R62" to="6"/>
    <edge id="R62o" from="6" to="R62"/>
    <edge id="R6i" from="R6" to="7"/>
    <edge id="R6o" from="7" to="R6"/>
    <edge id="R28i" from="R28" to="7"/>
    <edge id="R28o" from="7" to="R28"/>
    <edge id="R23i" from="R23" to="8"/>
    <edge id="R23o" from="8" to="R23"/>
    <edge id="R21i" from="R21" to="8"/>
    <edge id="R21o" from="8" to="R21"/>
    <edge id="R14i" from="R14" to="9"/>
    <edge id="R14o" from="9" to="R14"/>
    <edge id="R15i" from="R15" to="9"/>
    <edge id="R15o" from="9" to="R15"/>
    <edge id="R37i" from="R37" to="10"/>
    <edge id="R37o" from="10" to="R37"/>
    <edge id="R38i" from="R38" to="10"/>
    <edge id="R38o" from="10" to="R38"/>
    <edge id="R39i" from="R39" to="11"/>
    <edge id="R39o" from="11" to="R39"/>
    <edge id="R40i" from="R40" to="11"/>
    <edge id="R40o" from="11" to="R40"/>
    <edge id="R48i" from="R48" to="12"/>
    <edge id="R48o" from="12" to="R48"/>
    <edge id="R49i" from="R49" to="12"/>
    <edge id="R49o" from="12" to="R49"/>

    <edge id="r0_1" from="0" to="1"/>
    <edge id="r1_0" from="1" to="0"/>
    <edge id="r1_2" from="1" to="2"/>
    <edge id="r2_1" from="2" to="1"/>
    <edge id="r2_3" from="2" to="3"/>
    <edge id="r3_2" from="3" to="2"/>
    <edge id="r3_4" from="3" to="4"/>
    <edge id="r4_3" from="4" to="3"/>
    <edge id="r4_5" from="4" to="5"/>
    <edge id="r5_4" from="5" to="4"/>
    <edge id="r5_6" from="5" to="6"/>
    <edge id="r6_5" from="6" to="5"/>
    <edge id="r6_7" from="6" to="7"/>
    <edge id="r7_6" from="7" to="6"/>
    <edge id="r7_8" from="7" to="8"/>
    <edge id="r8_7" from="8" to="7"/>
    <edge id="r8_9" from="8" to="9"/>
    <edge id="r9_8" from="9" to="8"/>
    <edge id="r9_10" from="9" to="10"/>
    <edge id="r10_9" from="10" to="9"/>
    <edge id="r10_11" from="10" to="11"/>
    <edge id="r11_10" from="11" to="10"/>
    <edge id="r11_12" from="11" to="12"/>
    <edge id="r12_11" from="12" to="11"/>
    <edge id="r3_12" from="3" to="12"/>
    <edge id="r12_3" from="12" to="3"/>
</edges>
