<nodes>
    <node id="R109" x="-650" y="1600" />
    <node id="R106" x="-750" y="1500" />
    <node id="0" x="-650" y="1500" />
    <node id="R104" x="-700" y="1400"/>

    <node id="1" x="-650" y="1300" />
    <node id="R99" x="-700" y="1200" />

    <node id="2" x="-600" y="1100"/>
    <node id="R91" x="600" y="1100"/>

    <node id="3" x="-550" y="1000"/>
    <node id="R81" x="-600" y="1000"/>

    <node id="4" x="-400" y="800"/>
    <node id="R67" x="-500" y="800"/>
    <node id="R66" x="-300" y="800"/>

    <node id="5" x="-200" y="600"/>
    <node id="R69" x="-250" y="550"/>

    <node id="6" x="-100" y="600"/>
    <node id="R72" x="-100" y="650"/>
    <node id="R62" x="-100" y="550"/>

    <node id="7" x="0" y="600"/>
    <node id="R6" x="50" y="600"/>
    <node id="R28" x="0" y="550"/>

    <node id="8" x="0" y="750"/>
    <node id="R23" x="50" y="750"/>
    <node id="R21" x="-50" y="750" />

    <node id="9" x="0" y="850" />
    <node id="R14" x="-50" y="850"/>
    <node id="R15" x="50" y="850"/>

    <node id="10" x="0" y="1000" />
    <node id="R37" x="50" y="1000"/>
    <node id="R38" x="0" y="1050"/>

    <node id="11" x="-250" y="1000" />
    <node id="R39" x="-250" y="1050" />
    <node id="R40" x="-250" y="950"/>

    <node id="12" x="-400" y="1000" />
    <node id="R48" x="-400" y="1050"/>
    <node id="R49" x="-400" y="950" />
</nodes>