<?xml version="1.0" encoding="UTF-8"?>

<!-- generated on 2023-04-21 13:21:58 by Eclipse SUMO netconvert Version 1.16.0
<configuration xmlns:xsi="http://www.w3.org/2001/XMLSchema-instance" xsi:noNamespaceSchemaLocation="http://sumo.dlr.de/xsd/netconvertConfiguration.xsd">

    <input>
        <node-files value="test2.nod.xml"/>
        <edge-files value="test2.edg.xml"/>
    </input>

    <output>
        <output-file value="test2.net.xml"/>
    </output>

</configuration>
-->

<net version="1.16" junctionCornerDetail="5" limitTurnSpeed="5.50" xmlns:xsi="http://www.w3.org/2001/XMLSchema-instance" xsi:noNamespaceSchemaLocation="http://sumo.dlr.de/xsd/net_file.xsd">

    <location netOffset="750.00,130.00" convBoundary="0.00,0.00,1365.00,1820.00" origBoundary="-750.00,-130.00,615.00,1690.00" projParameter="!"/>

    <edge id=":0_0" function="internal">
        <lane id=":0_0_0" index="0" speed="6.51" length="9.03" shape="85.60,1740.40 85.25,1737.95 84.20,1736.20 82.45,1735.15 80.00,1734.80"/>
    </edge>
    <edge id=":0_1" function="internal">
        <lane id=":0_1_0" index="0" speed="60.00" length="24.00" shape="85.60,1740.40 85.60,1716.40"/>
        <lane id=":0_1_1" index="1" speed="60.00" length="24.00" shape="88.80,1740.40 88.80,1716.40"/>
        <lane id=":0_1_2" index="2" speed="60.00" length="24.00" shape="92.00,1740.40 92.00,1716.40"/>
        <lane id=":0_1_3" index="3" speed="60.00" length="24.00" shape="95.20,1740.40 95.20,1716.40"/>
        <lane id=":0_1_4" index="4" speed="60.00" length="24.00" shape="98.40,1740.40 98.40,1716.40"/>
    </edge>
    <edge id=":0_6" function="internal">
        <lane id=":0_6_0" index="0" speed="3.65" length="1.44" shape="98.40,1740.40 99.20,1739.20"/>
    </edge>
    <edge id=":0_22" function="internal">
        <lane id=":0_22_0" index="0" speed="3.65" length="3.23" shape="99.20,1739.20 100.00,1738.80 100.80,1739.20 101.60,1740.40"/>
    </edge>
    <edge id=":0_7" function="internal">
        <lane id=":0_7_0" index="0" speed="60.00" length="24.45" shape="117.60,1716.40 117.10,1723.55 116.00,1728.40 114.90,1733.25 114.40,1740.40"/>
        <lane id=":0_7_1" index="1" speed="60.00" length="24.45" shape="114.40,1716.40 113.90,1723.55 112.80,1728.40 111.70,1733.25 111.20,1740.40"/>
        <lane id=":0_7_2" index="2" speed="60.00" length="24.45" shape="111.20,1716.40 110.70,1723.55 109.60,1728.40 108.50,1733.25 108.00,1740.40"/>
        <lane id=":0_7_3" index="3" speed="60.00" length="24.45" shape="108.00,1716.40 107.50,1723.55 106.40,1728.40 105.30,1733.25 104.80,1740.40"/>
        <lane id=":0_7_4" index="4" speed="60.00" length="24.45" shape="108.00,1716.40 107.00,1723.64 104.80,1728.40 102.60,1733.16 101.60,1740.40"/>
    </edge>
    <edge id=":0_12" function="internal">
        <lane id=":0_12_0" index="0" speed="12.30" length="11.80" shape="104.80,1716.40 103.25,1724.45 100.98,1727.25"/>
        <lane id=":0_12_1" index="1" speed="11.39" length="3.61" shape="101.60,1716.40 100.88,1719.94"/>
    </edge>
    <edge id=":0_14" function="internal">
        <lane id=":0_14_0" index="0" speed="3.65" length="1.44" shape="101.60,1716.40 100.80,1717.60"/>
    </edge>
    <edge id=":0_23" function="internal">
        <lane id=":0_23_0" index="0" speed="12.30" length="23.18" shape="100.98,1727.25 98.60,1730.20 90.85,1733.65 80.00,1734.80"/>
    </edge>
    <edge id=":0_24" function="internal">
        <lane id=":0_24_0" index="0" speed="11.39" length="26.24" shape="100.88,1719.94 100.25,1723.05 96.20,1727.80 89.45,1730.65 80.00,1731.60"/>
    </edge>
    <edge id=":0_25" function="internal">
        <lane id=":0_25_0" index="0" speed="3.65" length="3.23" shape="100.80,1717.60 100.00,1718.00 99.20,1717.60 98.40,1716.40"/>
    </edge>
    <edge id=":0_15" function="internal">
        <lane id=":0_15_0" index="0" speed="6.51" length="9.03" shape="80.00,1722.00 82.45,1721.65 84.20,1720.60 85.25,1718.85 85.60,1716.40"/>
        <lane id=":0_15_1" index="1" speed="8.00" length="14.19" shape="80.00,1725.20 83.85,1724.65 86.60,1723.00 88.25,1720.25 88.80,1716.40"/>
        <lane id=":0_15_2" index="2" speed="8.67" length="16.85" shape="80.00,1725.20 85.25,1724.65 89.00,1723.00 91.25,1720.25 92.00,1716.40"/>
    </edge>
    <edge id=":0_18" function="internal">
        <lane id=":0_18_0" index="0" speed="12.01" length="33.29" shape="80.00,1728.40 92.25,1729.15 101.00,1731.40 106.25,1735.15 108.00,1740.40"/>
        <lane id=":0_18_1" index="1" speed="11.49" length="30.39" shape="80.00,1728.40 90.85,1729.15 98.60,1731.40 103.25,1735.15 104.80,1740.40"/>
        <lane id=":0_18_2" index="2" speed="10.96" length="27.54" shape="80.00,1728.40 89.45,1729.15 96.20,1731.40 100.25,1735.15 101.60,1740.40"/>
    </edge>
    <edge id=":0_21" function="internal">
        <lane id=":0_21_0" index="0" speed="3.65" length="2.34" shape="80.00,1728.40 81.20,1729.20 81.60,1730.00"/>
    </edge>
    <edge id=":0_26" function="internal">
        <lane id=":0_26_0" index="0" speed="3.65" length="2.34" shape="81.60,1730.00 81.20,1730.80 80.00,1731.60"/>
    </edge>
    <edge id=":0_0_0" function="internal">
        <lane id=":0_0_0_0" index="0" speed="3.65" length="4.67" shape="101.60,1820.00 100.80,1821.20 100.00,1821.60 99.20,1821.20 98.40,1820.00"/>
    </edge>
    <edge id=":0_1_0" function="internal">
        <lane id=":0_1_0_0" index="0" speed="18.08" length="22.49" shape="85.60,1553.51 87.03,1546.88 90.76,1543.42 95.95,1540.49 101.76,1535.45"/>
        <lane id=":0_1_0_1" index="1" speed="17.35" length="22.49" shape="88.80,1553.51 90.21,1547.52 93.83,1544.53 98.80,1542.04 104.22,1537.50"/>
        <lane id=":0_1_0_2" index="2" speed="16.60" length="22.49" shape="92.00,1553.51 93.38,1548.15 96.90,1545.65 101.64,1543.59 106.67,1539.56"/>
        <lane id=":0_1_0_3" index="3" speed="15.84" length="22.49" shape="95.20,1553.51 96.55,1548.77 99.96,1546.76 104.47,1545.15 109.12,1541.61"/>
    </edge>
    <edge id=":0_1_4" function="internal">
        <lane id=":0_1_4_0" index="0" speed="7.46" length="9.52" shape="118.94,1549.83 118.20,1550.76 117.80,1551.50 117.63,1552.32 117.60,1553.51"/>
        <lane id=":0_1_4_1" index="1" speed="9.18" length="9.52" shape="116.48,1547.78 115.33,1549.23 114.71,1550.37 114.45,1551.65 114.40,1553.51"/>
        <lane id=":0_1_4_2" index="2" speed="10.62" length="9.52" shape="114.03,1545.72 112.47,1547.70 111.62,1549.25 111.27,1550.99 111.20,1553.51"/>
        <lane id=":0_1_4_3" index="3" speed="11.89" length="9.52" shape="111.58,1543.67 109.60,1546.16 108.53,1548.13 108.09,1550.33 108.00,1553.51"/>
        <lane id=":0_1_4_4" index="4" speed="12.73" length="9.52" shape="111.58,1543.67 108.90,1546.30 106.75,1548.06 105.32,1550.09 104.80,1553.51"/>
        <lane id=":0_1_4_5" index="5" speed="13.85" length="9.52" shape="111.58,1543.67 108.12,1546.49 104.90,1547.97 102.53,1549.77 101.60,1553.51"/>
    </edge>
    <edge id=":0_2_0" function="internal">
        <lane id=":0_2_0_0" index="0" speed="3.65" length="4.67" shape="0.00,1731.60 -1.20,1730.80 -1.60,1730.00 -1.20,1729.20 0.00,1728.40"/>
    </edge>
    <edge id=":1_0" function="internal">
        <lane id=":1_0_0" index="0" speed="7.33" length="11.73" shape="543.60,928.00 543.25,924.15 542.20,921.40 540.45,919.75 538.00,919.20"/>
    </edge>
    <edge id=":1_1" function="internal">
        <lane id=":1_1_0" index="0" speed="60.00" length="40.00" shape="543.60,928.00 543.60,888.00"/>
        <lane id=":1_1_1" index="1" speed="60.00" length="40.00" shape="546.80,928.00 546.80,888.00"/>
        <lane id=":1_1_2" index="2" speed="60.00" length="40.00" shape="550.00,928.00 550.00,888.00"/>
        <lane id=":1_1_3" index="3" speed="60.00" length="40.00" shape="553.20,928.00 553.20,888.00"/>
        <lane id=":1_1_4" index="4" speed="60.00" length="40.00" shape="556.40,928.00 556.40,888.00"/>
    </edge>
    <edge id=":1_6" function="internal">
        <lane id=":1_6_0" index="0" speed="12.28" length="9.55" shape="556.40,928.00 557.75,918.55"/>
    </edge>
    <edge id=":1_7" function="internal">
        <lane id=":1_7_0" index="0" speed="3.65" length="1.44" shape="556.40,928.00 557.20,926.80"/>
    </edge>
    <edge id=":1_30" function="internal">
        <lane id=":1_30_0" index="0" speed="12.28" length="25.29" shape="557.75,918.55 561.80,911.80 568.55,907.75 578.00,906.40"/>
    </edge>
    <edge id=":1_31" function="internal">
        <lane id=":1_31_0" index="0" speed="3.65" length="3.23" shape="557.20,926.80 558.00,926.40 558.80,926.80 559.60,928.00"/>
    </edge>
    <edge id=":1_8" function="internal">
        <lane id=":1_8_0" index="0" speed="8.10" length="14.57" shape="578.00,922.40 572.75,922.75 569.00,923.80 566.75,925.55 566.00,928.00"/>
    </edge>
    <edge id=":1_9" function="internal">
        <lane id=":1_9_0" index="0" speed="60.00" length="40.13" shape="578.00,922.40 538.00,919.20"/>
        <lane id=":1_9_1" index="1" speed="60.00" length="40.13" shape="578.00,919.20 538.00,916.00"/>
        <lane id=":1_9_2" index="2" speed="60.00" length="40.13" shape="578.00,916.00 538.00,912.80"/>
        <lane id=":1_9_3" index="3" speed="60.00" length="40.13" shape="578.00,912.80 538.00,909.60"/>
    </edge>
    <edge id=":1_13" function="internal">
        <lane id=":1_13_0" index="0" speed="12.72" length="11.33" shape="578.00,909.60 567.15,908.25 566.80,908.07"/>
        <lane id=":1_13_1" index="1" speed="12.28" length="9.55" shape="578.00,909.60 568.55,908.25"/>
    </edge>
    <edge id=":1_15" function="internal">
        <lane id=":1_15_0" index="0" speed="3.65" length="1.44" shape="578.00,909.60 576.80,908.80"/>
    </edge>
    <edge id=":1_32" function="internal">
        <lane id=":1_32_0" index="0" speed="12.72" length="26.12" shape="566.80,908.07 559.40,904.20 554.75,897.45 553.20,888.00"/>
    </edge>
    <edge id=":1_33" function="internal">
        <lane id=":1_33_0" index="0" speed="12.28" length="25.29" shape="568.55,908.25 561.80,904.20 557.75,897.45 556.40,888.00"/>
    </edge>
    <edge id=":1_34" function="internal">
        <lane id=":1_34_0" index="0" speed="3.65" length="3.23" shape="576.80,908.80 576.40,908.00 576.80,907.20 578.00,906.40"/>
    </edge>
    <edge id=":1_16" function="internal">
        <lane id=":1_16_0" index="0" speed="7.33" length="11.73" shape="572.40,888.00 572.75,891.85 573.80,894.60 575.55,896.25 578.00,896.80"/>
    </edge>
    <edge id=":1_17" function="internal">
        <lane id=":1_17_0" index="0" speed="60.00" length="40.13" shape="569.20,888.00 566.00,928.00"/>
        <lane id=":1_17_1" index="1" speed="60.00" length="40.13" shape="566.00,888.00 562.80,928.00"/>
        <lane id=":1_17_2" index="2" speed="60.00" length="40.13" shape="562.80,888.00 559.60,928.00"/>
    </edge>
    <edge id=":1_20" function="internal">
        <lane id=":1_20_0" index="0" speed="12.28" length="5.01" shape="559.60,888.00 558.89,892.96"/>
    </edge>
    <edge id=":1_21" function="internal">
        <lane id=":1_21_0" index="0" speed="3.65" length="1.44" shape="559.60,888.00 558.80,889.20"/>
    </edge>
    <edge id=":1_35" function="internal">
        <lane id=":1_35_0" index="0" speed="12.28" length="29.82" shape="558.89,892.96 558.25,897.45 554.20,904.20 547.45,908.25 538.00,909.60"/>
    </edge>
    <edge id=":1_36" function="internal">
        <lane id=":1_36_0" index="0" speed="3.65" length="3.23" shape="558.80,889.20 558.00,889.60 557.20,889.20 556.40,888.00"/>
    </edge>
    <edge id=":1_22" function="internal">
        <lane id=":1_22_0" index="0" speed="6.51" length="9.03" shape="538.00,893.60 540.45,893.25 542.20,892.20 543.25,890.45 543.60,888.00"/>
        <lane id=":1_22_1" index="1" speed="7.33" length="11.73" shape="538.00,893.60 541.85,893.25 544.60,892.20 546.25,890.45 546.80,888.00"/>
    </edge>
    <edge id=":1_24" function="internal">
        <lane id=":1_24_0" index="0" speed="60.00" length="40.13" shape="538.00,893.60 578.00,896.80"/>
        <lane id=":1_24_1" index="1" speed="60.00" length="40.13" shape="538.00,896.80 578.00,900.00"/>
        <lane id=":1_24_2" index="2" speed="60.00" length="40.13" shape="538.00,900.00 578.00,903.20"/>
        <lane id=":1_24_3" index="3" speed="60.00" length="40.13" shape="538.00,903.20 578.00,906.40"/>
    </edge>
    <edge id=":1_28" function="internal">
        <lane id=":1_28_0" index="0" speed="12.28" length="9.55" shape="538.00,906.40 547.45,907.75"/>
    </edge>
    <edge id=":1_29" function="internal">
        <lane id=":1_29_0" index="0" speed="3.65" length="1.44" shape="538.00,906.40 539.20,907.20"/>
    </edge>
    <edge id=":1_37" function="internal">
        <lane id=":1_37_0" index="0" speed="12.28" length="25.29" shape="547.45,907.75 554.20,911.80 558.25,918.55 559.60,928.00"/>
    </edge>
    <edge id=":1_38" function="internal">
        <lane id=":1_38_0" index="0" speed="3.65" length="3.23" shape="539.20,907.20 539.60,908.00 539.20,908.80 538.00,909.60"/>
    </edge>
    <edge id=":1_0_0" function="internal">
        <lane id=":1_0_0_0" index="0" speed="16.00" length="16.89" shape="566.00,1005.67 565.84,1011.51 565.03,1015.54 563.07,1019.15 559.44,1023.73"/>
        <lane id=":1_0_0_1" index="1" speed="15.08" length="16.89" shape="562.80,1005.67 562.66,1010.84 561.94,1014.42 560.20,1017.62 556.98,1021.67"/>
        <lane id=":1_0_0_2" index="2" speed="14.10" length="16.89" shape="559.60,1005.67 559.48,1010.18 558.85,1013.29 557.33,1016.08 554.53,1019.62"/>
        <lane id=":1_0_0_3" index="3" speed="13.77" length="16.89" shape="559.60,1005.67 559.06,1009.74 557.53,1012.23 555.16,1014.42 552.08,1017.57"/>
    </edge>
    <edge id=":1_0_4" function="internal">
        <lane id=":1_0_4_0" index="0" speed="7.46" length="8.45" shape="542.26,1009.35 543.00,1008.42 543.40,1007.68 543.57,1006.86 543.60,1005.67"/>
        <lane id=":1_0_4_1" index="1" speed="9.18" length="8.45" shape="544.72,1011.40 545.87,1009.95 546.49,1008.80 546.75,1007.52 546.80,1005.67"/>
        <lane id=":1_0_4_2" index="2" speed="10.62" length="8.45" shape="547.17,1013.46 548.73,1011.48 549.58,1009.93 549.93,1008.19 550.00,1005.67"/>
        <lane id=":1_0_4_3" index="3" speed="11.89" length="8.45" shape="549.62,1015.51 551.60,1013.02 552.67,1011.05 553.11,1008.85 553.20,1005.67"/>
        <lane id=":1_0_4_4" index="4" speed="12.73" length="8.45" shape="549.62,1015.51 552.30,1012.88 554.45,1011.11 555.88,1009.08 556.40,1005.67"/>
    </edge>
    <edge id=":1_1_0" function="internal">
        <lane id=":1_1_0_0" index="0" speed="60.00" length="9.88" shape="698.00,916.00 695.31,917.00 694.00,919.20 692.69,921.40 690.00,922.40"/>
        <lane id=":1_1_0_1" index="1" speed="60.00" length="9.88" shape="698.00,912.80 695.31,913.80 694.00,916.00 692.69,918.20 690.00,919.20"/>
        <lane id=":1_1_0_2" index="2" speed="60.00" length="9.88" shape="698.00,909.60 695.31,910.60 694.00,912.80 692.69,915.00 690.00,916.00"/>
        <lane id=":1_1_0_3" index="3" speed="60.00" length="9.88" shape="698.00,909.60 695.54,910.10 694.00,911.20 692.46,912.30 690.00,912.80"/>
        <lane id=":1_1_0_4" index="4" speed="60.00" length="9.88" shape="698.00,909.60 690.00,909.60"/>
    </edge>
    <edge id=":1_1_5" function="internal">
        <lane id=":1_1_5_0" index="0" speed="60.00" length="8.81" shape="690.00,896.80 692.46,897.30 694.00,898.40 695.54,899.50 698.00,900.00"/>
        <lane id=":1_1_5_1" index="1" speed="60.00" length="8.81" shape="690.00,900.00 692.46,900.50 694.00,901.60 695.54,902.70 698.00,903.20"/>
        <lane id=":1_1_5_2" index="2" speed="60.00" length="8.81" shape="690.00,903.20 692.46,903.70 694.00,904.80 695.54,905.90 698.00,906.40"/>
    </edge>
    <edge id=":1_2_0" function="internal">
        <lane id=":1_2_0_0" index="0" speed="41.30" length="16.83" shape="543.60,804.44 544.59,799.48 546.99,796.59 549.92,793.78 552.48,789.08"/>
        <lane id=":1_2_0_1" index="1" speed="40.23" length="16.83" shape="546.80,804.44 547.79,799.77 550.17,797.10 553.04,794.51 555.52,790.08"/>
        <lane id=":1_2_0_2" index="2" speed="39.14" length="16.83" shape="550.00,804.44 550.99,800.07 553.34,797.61 556.17,795.24 558.56,791.09"/>
        <lane id=":1_2_0_3" index="3" speed="38.03" length="16.83" shape="553.20,804.44 554.18,800.36 556.52,798.13 559.29,795.97 561.60,792.10"/>
    </edge>
    <edge id=":1_2_4" function="internal">
        <lane id=":1_2_4_0" index="0" speed="28.21" length="10.54" shape="573.74,796.14 572.97,798.53 572.57,800.21 572.42,801.93 572.40,804.44"/>
        <lane id=":1_2_4_1" index="1" speed="29.86" length="10.54" shape="570.71,795.13 569.84,797.81 569.40,799.69 569.23,801.62 569.20,804.44"/>
        <lane id=":1_2_4_2" index="2" speed="31.43" length="10.54" shape="567.67,794.12 566.71,797.09 566.22,799.18 566.03,801.32 566.00,804.44"/>
        <lane id=":1_2_4_3" index="3" speed="32.92" length="10.54" shape="564.63,793.11 563.58,796.37 563.04,798.66 562.83,801.01 562.80,804.44"/>
        <lane id=":1_2_4_4" index="4" speed="34.38" length="10.54" shape="564.63,793.11 563.02,796.49 561.38,798.66 560.11,800.88 559.60,804.44"/>
    </edge>
    <edge id=":1_3_0" function="internal">
        <lane id=":1_3_0_0" index="0" speed="3.65" length="4.67" shape="428.00,909.60 426.80,908.80 426.40,908.00 426.80,907.20 428.00,906.40"/>
    </edge>
    <edge id=":2_0" function="internal">
        <lane id=":2_0_0" index="0" speed="60.00" length="33.80" shape="735.60,146.80 736.10,136.80 737.20,130.00 738.30,123.20 738.80,113.20"/>
        <lane id=":2_0_1" index="1" speed="60.00" length="33.80" shape="738.80,146.80 739.30,136.80 740.40,130.00 741.50,123.20 742.00,113.20"/>
        <lane id=":2_0_2" index="2" speed="60.00" length="33.80" shape="742.00,146.80 742.50,136.80 743.60,130.00 744.70,123.20 745.20,113.20"/>
        <lane id=":2_0_3" index="3" speed="60.00" length="33.80" shape="745.20,146.80 745.70,136.80 746.80,130.00 747.90,123.20 748.40,113.20"/>
    </edge>
    <edge id=":2_4" function="internal">
        <lane id=":2_4_0" index="0" speed="12.28" length="5.01" shape="748.40,146.80 749.11,141.84"/>
        <lane id=":2_4_1" index="1" speed="11.84" length="4.31" shape="748.40,146.80 749.11,142.55"/>
    </edge>
    <edge id=":2_6" function="internal">
        <lane id=":2_6_0" index="0" speed="3.65" length="1.44" shape="748.40,146.80 749.20,145.60"/>
    </edge>
    <edge id=":2_21" function="internal">
        <lane id=":2_21_0" index="0" speed="12.28" length="29.82" shape="749.11,141.84 749.75,137.35 753.80,130.60 760.55,126.55 770.00,125.20"/>
    </edge>
    <edge id=":2_22" function="internal">
        <lane id=":2_22_0" index="0" speed="11.84" length="27.99" shape="749.11,142.55 749.75,138.75 753.80,133.00 760.55,129.55 770.00,128.40"/>
    </edge>
    <edge id=":2_23" function="internal">
        <lane id=":2_23_0" index="0" speed="3.65" length="3.23" shape="749.20,145.60 750.00,145.20 750.80,145.60 751.60,146.80"/>
    </edge>
    <edge id=":2_7" function="internal">
        <lane id=":2_7_0" index="0" speed="6.51" length="9.03" shape="770.00,141.20 767.55,141.55 765.80,142.60 764.75,144.35 764.40,146.80"/>
        <lane id=":2_7_1" index="1" speed="8.00" length="14.19" shape="770.00,138.00 766.15,138.55 763.40,140.20 761.75,142.95 761.20,146.80"/>
        <lane id=":2_7_2" index="2" speed="9.26" length="19.35" shape="770.00,134.80 764.75,135.55 761.00,137.80 758.75,141.55 758.00,146.80"/>
    </edge>
    <edge id=":2_10" function="internal">
        <lane id=":2_10_0" index="0" speed="12.30" length="34.99" shape="770.00,131.60 759.15,130.45 751.40,127.00 746.75,121.25 745.20,113.20"/>
        <lane id=":2_10_1" index="1" speed="11.84" length="32.30" shape="770.00,131.60 760.55,130.45 753.80,127.00 749.75,121.25 748.40,113.20"/>
    </edge>
    <edge id=":2_12" function="internal">
        <lane id=":2_12_0" index="0" speed="3.65" length="2.34" shape="770.00,131.60 768.80,130.80 768.40,130.00"/>
    </edge>
    <edge id=":2_24" function="internal">
        <lane id=":2_24_0" index="0" speed="3.65" length="2.34" shape="768.40,130.00 768.80,129.20 770.00,128.40"/>
    </edge>
    <edge id=":2_13" function="internal">
        <lane id=":2_13_0" index="0" speed="6.51" length="9.03" shape="764.40,113.20 764.75,115.65 765.80,117.40 767.55,118.45 770.00,118.80"/>
        <lane id=":2_13_1" index="1" speed="7.33" length="11.73" shape="764.40,113.20 764.75,117.05 765.80,119.80 767.55,121.45 770.00,122.00"/>
    </edge>
    <edge id=":2_15" function="internal">
        <lane id=":2_15_0" index="0" speed="60.00" length="33.60" shape="764.40,113.20 764.40,146.80"/>
        <lane id=":2_15_1" index="1" speed="60.00" length="33.60" shape="761.20,113.20 761.20,146.80"/>
        <lane id=":2_15_2" index="2" speed="60.00" length="33.60" shape="758.00,113.20 758.00,146.80"/>
        <lane id=":2_15_3" index="3" speed="60.00" length="33.60" shape="754.80,113.20 754.80,146.80"/>
        <lane id=":2_15_4" index="4" speed="60.00" length="33.60" shape="751.60,113.20 751.60,146.80"/>
    </edge>
    <edge id=":2_20" function="internal">
        <lane id=":2_20_0" index="0" speed="3.65" length="1.44" shape="751.60,113.20 750.80,114.40"/>
    </edge>
    <edge id=":2_25" function="internal">
        <lane id=":2_25_0" index="0" speed="3.65" length="3.23" shape="750.80,114.40 750.00,114.80 749.20,114.40 748.40,113.20"/>
    </edge>
    <edge id=":2_0_0" function="internal">
        <lane id=":2_0_0_0" index="0" speed="41.30" length="16.83" shape="764.40,233.56 763.41,238.52 761.01,241.41 758.08,244.22 755.52,248.92"/>
        <lane id=":2_0_0_1" index="1" speed="40.23" length="16.83" shape="761.20,233.56 760.21,238.23 757.83,240.90 754.96,243.49 752.48,247.92"/>
        <lane id=":2_0_0_2" index="2" speed="39.14" length="16.83" shape="758.00,233.56 757.01,237.93 754.66,240.39 751.83,242.76 749.44,246.91"/>
        <lane id=":2_0_0_3" index="3" speed="38.03" length="16.83" shape="754.80,233.56 753.82,237.64 751.48,239.87 748.71,242.03 746.40,245.90"/>
    </edge>
    <edge id=":2_0_4" function="internal">
        <lane id=":2_0_4_0" index="0" speed="28.21" length="10.54" shape="734.26,241.86 735.03,239.47 735.43,237.79 735.58,236.07 735.60,233.56"/>
        <lane id=":2_0_4_1" index="1" speed="29.86" length="10.54" shape="737.29,242.87 738.16,240.19 738.60,238.31 738.77,236.38 738.80,233.56"/>
        <lane id=":2_0_4_2" index="2" speed="31.43" length="10.54" shape="740.33,243.88 741.29,240.91 741.78,238.82 741.97,236.68 742.00,233.56"/>
        <lane id=":2_0_4_3" index="3" speed="32.92" length="10.54" shape="743.37,244.89 744.42,241.63 744.96,239.34 745.17,236.99 745.20,233.56"/>
        <lane id=":2_0_4_4" index="4" speed="34.38" length="10.54" shape="743.37,244.89 744.98,241.51 746.62,239.34 747.89,237.12 748.40,233.56"/>
    </edge>
    <edge id=":2_1_0" function="internal">
        <lane id=":2_1_0_0" index="0" speed="60.00" length="8.60" shape="854.00,138.00 851.54,138.50 850.00,139.60 848.46,140.70 846.00,141.20"/>
        <lane id=":2_1_0_1" index="1" speed="60.00" length="8.60" shape="854.00,134.80 851.54,135.30 850.00,136.40 848.46,137.50 846.00,138.00"/>
        <lane id=":2_1_0_2" index="2" speed="60.00" length="8.60" shape="854.00,131.60 851.54,132.10 850.00,133.20 848.46,134.30 846.00,134.80"/>
        <lane id=":2_1_0_3" index="3" speed="60.00" length="8.60" shape="854.00,131.60 846.00,131.60"/>
    </edge>
    <edge id=":2_1_4" function="internal">
        <lane id=":2_1_4_0" index="0" speed="60.00" length="8.81" shape="846.00,118.80 848.46,119.30 850.00,120.40 851.54,121.50 854.00,122.00"/>
        <lane id=":2_1_4_1" index="1" speed="60.00" length="8.81" shape="846.00,122.00 848.46,122.50 850.00,123.60 851.54,124.70 854.00,125.20"/>
        <lane id=":2_1_4_2" index="2" speed="60.00" length="8.81" shape="846.00,125.20 848.46,125.70 850.00,126.80 851.54,127.90 854.00,128.40"/>
    </edge>
    <edge id=":2_2_0" function="internal">
        <lane id=":2_2_0_0" index="0" speed="3.65" length="4.67" shape="748.40,60.00 749.20,58.80 750.00,58.40 750.80,58.80 751.60,60.00"/>
    </edge>
    <edge id=":3_0" function="internal">
        <lane id=":3_0_0" index="0" speed="6.51" length="9.03" shape="1270.60,146.80 1270.25,144.35 1269.20,142.60 1267.45,141.55 1265.00,141.20"/>
    </edge>
    <edge id=":3_1" function="internal">
        <lane id=":3_1_0" index="0" speed="60.00" length="33.60" shape="1270.60,146.80 1270.60,113.20"/>
        <lane id=":3_1_1" index="1" speed="60.00" length="33.60" shape="1273.80,146.80 1273.80,113.20"/>
        <lane id=":3_1_2" index="2" speed="60.00" length="33.60" shape="1277.00,146.80 1277.00,113.20"/>
        <lane id=":3_1_3" index="3" speed="60.00" length="33.60" shape="1280.20,146.80 1280.20,113.20"/>
        <lane id=":3_1_4" index="4" speed="60.00" length="33.60" shape="1283.40,146.80 1283.40,113.20"/>
    </edge>
    <edge id=":3_6" function="internal">
        <lane id=":3_6_0" index="0" speed="11.84" length="6.28" shape="1283.40,146.80 1284.44,140.61"/>
    </edge>
    <edge id=":3_7" function="internal">
        <lane id=":3_7_0" index="0" speed="3.65" length="1.44" shape="1283.40,146.80 1284.20,145.60"/>
    </edge>
    <edge id=":3_28" function="internal">
        <lane id=":3_28_0" index="0" speed="11.84" length="26.02" shape="1284.44,140.61 1284.75,138.75 1288.80,133.00 1295.55,129.55 1305.00,128.40"/>
    </edge>
    <edge id=":3_29" function="internal">
        <lane id=":3_29_0" index="0" speed="3.65" length="3.23" shape="1284.20,145.60 1285.00,145.20 1285.80,145.60 1286.60,146.80"/>
    </edge>
    <edge id=":3_8" function="internal">
        <lane id=":3_8_0" index="0" speed="9.26" length="19.35" shape="1305.00,134.80 1299.75,135.55 1296.00,137.80 1293.75,141.55 1293.00,146.80"/>
    </edge>
    <edge id=":3_9" function="internal">
        <lane id=":3_9_0" index="0" speed="60.00" length="40.09" shape="1305.00,134.80 1265.00,138.00"/>
        <lane id=":3_9_1" index="1" speed="60.00" length="40.09" shape="1305.00,131.60 1265.00,134.80"/>
        <lane id=":3_9_2" index="2" speed="60.00" length="40.09" shape="1305.00,131.60 1265.00,131.60"/>
    </edge>
    <edge id=":3_12" function="internal">
        <lane id=":3_12_0" index="0" speed="12.30" length="12.01" shape="1305.00,131.60 1294.15,130.45 1293.15,130.00"/>
        <lane id=":3_12_1" index="1" speed="11.84" length="10.16" shape="1305.00,131.60 1295.55,130.45 1294.98,130.16"/>
    </edge>
    <edge id=":3_14" function="internal">
        <lane id=":3_14_0" index="0" speed="3.65" length="1.44" shape="1305.00,131.60 1303.80,130.80"/>
    </edge>
    <edge id=":3_30" function="internal">
        <lane id=":3_30_0" index="0" speed="12.30" length="22.98" shape="1293.15,130.00 1286.40,127.00 1281.75,121.25 1280.20,113.20"/>
    </edge>
    <edge id=":3_31" function="internal">
        <lane id=":3_31_0" index="0" speed="11.84" length="22.14" shape="1294.98,130.16 1288.80,127.00 1284.75,121.25 1283.40,113.20"/>
    </edge>
    <edge id=":3_32" function="internal">
        <lane id=":3_32_0" index="0" speed="3.65" length="3.23" shape="1303.80,130.80 1303.40,130.00 1303.80,129.20 1305.00,128.40"/>
    </edge>
    <edge id=":3_15" function="internal">
        <lane id=":3_15_0" index="0" speed="7.33" length="11.73" shape="1299.40,113.20 1299.75,117.05 1300.80,119.80 1302.55,121.45 1305.00,122.00"/>
    </edge>
    <edge id=":3_16" function="internal">
        <lane id=":3_16_0" index="0" speed="60.00" length="33.80" shape="1296.20,113.20 1295.70,123.46 1294.60,130.70 1293.50,137.60 1293.00,146.80"/>
        <lane id=":3_16_1" index="1" speed="60.00" length="33.80" shape="1293.00,113.20 1292.50,123.46 1291.40,130.70 1290.30,137.60 1289.80,146.80"/>
        <lane id=":3_16_2" index="2" speed="60.00" length="33.80" shape="1289.80,113.20 1289.30,123.46 1288.20,130.70 1287.10,137.60 1286.60,146.80"/>
    </edge>
    <edge id=":3_19" function="internal">
        <lane id=":3_19_0" index="0" speed="11.84" length="4.31" shape="1286.60,113.20 1285.89,117.45"/>
    </edge>
    <edge id=":3_20" function="internal">
        <lane id=":3_20_0" index="0" speed="3.65" length="1.44" shape="1286.60,113.20 1285.80,114.40"/>
    </edge>
    <edge id=":3_33" function="internal">
        <lane id=":3_33_0" index="0" speed="11.84" length="27.99" shape="1285.89,117.45 1285.25,121.25 1281.20,127.00 1274.45,130.45 1265.00,131.60"/>
    </edge>
    <edge id=":3_34" function="internal">
        <lane id=":3_34_0" index="0" speed="3.65" length="3.23" shape="1285.80,114.40 1285.00,114.80 1284.20,114.40 1283.40,113.20"/>
    </edge>
    <edge id=":3_21" function="internal">
        <lane id=":3_21_0" index="0" speed="6.51" length="9.03" shape="1265.00,118.80 1267.45,118.45 1269.20,117.40 1270.25,115.65 1270.60,113.20"/>
        <lane id=":3_21_1" index="1" speed="7.33" length="11.73" shape="1265.00,118.80 1268.85,118.45 1271.60,117.40 1273.25,115.65 1273.80,113.20"/>
    </edge>
    <edge id=":3_23" function="internal">
        <lane id=":3_23_0" index="0" speed="60.00" length="40.13" shape="1265.00,118.80 1305.00,122.00"/>
        <lane id=":3_23_1" index="1" speed="60.00" length="40.13" shape="1265.00,122.00 1305.00,125.20"/>
        <lane id=":3_23_2" index="2" speed="60.00" length="40.13" shape="1265.00,125.20 1305.00,128.40"/>
    </edge>
    <edge id=":3_26" function="internal">
        <lane id=":3_26_0" index="0" speed="11.84" length="5.85" shape="1265.00,128.40 1270.81,129.11"/>
    </edge>
    <edge id=":3_27" function="internal">
        <lane id=":3_27_0" index="0" speed="3.65" length="1.44" shape="1265.00,128.40 1266.20,129.20"/>
    </edge>
    <edge id=":3_35" function="internal">
        <lane id=":3_35_0" index="0" speed="11.84" length="26.45" shape="1270.81,129.11 1274.45,129.55 1281.20,133.00 1285.25,138.75 1286.60,146.80"/>
    </edge>
    <edge id=":3_36" function="internal">
        <lane id=":3_36_0" index="0" speed="3.65" length="3.23" shape="1266.20,129.20 1266.60,130.00 1266.20,130.80 1265.00,131.60"/>
    </edge>