<?xml version="1.0" encoding="UTF-8"?>

<!-- generated on 2023-04-21 13:52:31.696575 by randomTrips.py v1_16_0+0000-94ec4c6cd72
<configuration>
    <end value="50"/>
    <net-file value=".\test2.net.xml"/>
</configuration>
-->

<routes xmlns:xsi="http://www.w3.org/2001/XMLSchema-instance" xsi:noNamespaceSchemaLocation="http://sumo.dlr.de/xsd/routes_file.xsd">
    <trip id="0" depart="0.00" from="4_2i" to="0_0o"/>
    <trip id="1" depart="1.00" from="1_3i" to="1_2i"/>
    <trip id="2" depart="2.00" from="4_3o" to="4_2o"/>
    <trip id="3" depart="3.00" from="r3_3_2" to="0_2o"/>
    <trip id="4" depart="4.00" from="3_0i" to="0_1i"/>
    <trip id="5" depart="5.00" from="1_2i" to="3_2o"/>
    <trip id="6" depart="6.00" from="0_1i" to="1_1o"/>
    <trip id="7" depart="7.00" from="4_2i" to="3_3i"/>
    <trip id="8" depart="8.00" from="1_2i" to="4_0o"/>
    <trip id="9" depart="9.00" from="r2_1_2" to="0_0o"/>
    <trip id="10" depart="10.00" from="r2_1_2" to="4_3i"/>
    <trip id="11" depart="11.00" from="2_0o" to="1_0o"/>
    <trip id="12" depart="12.00" from="r5_1_4" to="2_0o"/>
    <trip id="13" depart="13.00" from="0_2i" to="0_2o"/>
    <trip id="14" depart="14.00" from="r3_2_3" to="4_0o"/>
    <trip id="15" depart="15.00" from="r2_1_2" to="4_3o"/>
    <trip id="16" depart="16.00" from="3_3i" to="r5_1_4"/>
    <trip id="17" depart="17.00" from="2_1o" to="3_3i"/>
    <trip id="18" depart="18.00" from="r2_2_1" to="4_1o"/>
    <trip id="19" depart="19.00" from="r3_2_3" to="3_3o"/>
    <trip id="20" depart="20.00" from="4_3i" to="0_1i"/>
    <trip id="21" depart="21.00" from="1_2i" to="1_3o"/>
    <trip id="22" depart="22.00" from="0_2i" to="1_2i"/>
    <trip id="23" depart="23.00" from="0_2i" to="1_3o"/>
    <trip id="24" depart="24.00" from="4_2i" to="2_1i"/>
    <trip id="25" depart="25.00" from="2_1o" to="1_1o"/>
    <trip id="26" depart="26.00" from="1_3i" to="r4_4_3"/>
    <trip id="27" depart="27.00" from="4_2i" to="4_1o"/>
    <trip id="28" depart="28.00" from="1_1i" to="4_3o"/>
    <trip id="29" depart="29.00" from="1_1i" to="2_1o"/>
    <trip id="30" depart="30.00" from="r5_4_1" to="4_2i"/>
    <trip id="31" depart="31.00" from="3_3o" to="4_3i"/>
    <trip id="32" depart="32.00" from="r3_2_3" to="r1_1_0"/>
    <trip id="33" depart="33.00" from="1_2i" to="0_1i"/>
    <trip id="34" depart="34.00" from="2_0i" to="1_3o"/>
    <trip id="35" depart="35.00" from="1_2i" to="r4_4_3"/>
    <trip id="36" depart="36.00" from="r3_3_2" to="2_0i"/>
    <trip id="37" depart="37.00" from="4_2i" to="2_2o"/>
    <trip id="38" depart="38.00" from="r4_3_4" to="3_0o"/>
    <trip id="39" depart="39.00" from="1_3i" to="1_2o"/>
    <trip id="40" depart="40.00" from="3_3o" to="1_2o"/>
    <trip id="41" depart="41.00" from="4_0i" to="r4_3_4"/>
    <trip id="42" depart="42.00" from="2_2i" to="1_2i"/>
    <trip id="43" depart="43.00" from="r5_4_1" to="3_2o"/>
    <trip id="44" depart="44.00" from="0_2i" to="0_1i"/>
    <trip id="45" depart="45.00" from="1_0i" to="4_1o"/>
    <trip id="46" depart="46.00" from="r2_1_2" to="3_0i"/>
    <trip id="47" depart="47.00" from="0_1o" to="2_1o"/>
    <trip id="48" depart="48.00" from="r5_4_1" to="3_3i"/>
    <trip id="49" depart="49.00" from="r5_1_4" to="r3_2_3"/>
</routes>
