<?xml version='1.0' encoding='utf-8'?>
<routes>
  <vType accel="1.0" decel="5.0" id="Car" length="2.0" maxSpeed="70.0" sigma="0.0" />
  <route id="route0" edges="0_2i 0_1o r1_0_1 1_0i 1_3o" />
  <route id="route1" edges="1_3i 1_0o r1_1_0 0_1i 0_2o" />
  <route id="route2" edges="1_3i 1_1o r5_1_4 4_3i 4_0o" />
  <route id="route3" edges="1_3i 1_2o r2_1_2 2_0i 2_1o r3_2_3 3_3i 3_2o" />
  <route id="route4" edges="2_2i 2_1o r3_2_3 3_3i 3_2o" />
  <route id="route5" edges="4_0i 4_3o r5_4_1 1_1i 1_3o" />
  <route id="route6" edges="4_0i 4_2o r4_4_3 3_0i 3_1o" />
  <route id="route7" edges="3_1i 3_0o r4_3_4 4_2i 4_0o" />
  <route id="route8" edges="3_2i 3_3o r3_3_2 2_1i 2_0o r2_2_1 1_2i 1_3o" />
  <route id="route9" edges="3_2i 3_3o r3_3_2 2_1i 2_2o" />
  <vehicle depart="0" id="veh5681" route="route1" type="Car" />
  <vehicle depart="0" id="veh8788" route="route2" type="Car" />
  <vehicle depart="0" id="veh12528" route="route2" type="Car" />
  <vehicle depart="0" id="veh18597" route="route5" type="Car" />
  <vehicle depart="0" id="veh20991" route="route5" type="Car" />
  <vehicle depart="0" id="veh26623" route="route6" type="Car" />
  <vehicle depart="0" id="veh28623" route="route7" type="Car" />
  <vehicle depart="0" id="veh33108" route="route8" type="Car" />
  <vehicle depart="0" id="veh35640" route="route8" type="Car" />
  <vehicle depart="0" id="veh36609" route="route9" type="Car" />
  <vehicle depart="1" id="veh10177" route="route2" type="Car" />
  <vehicle depart="1" id="veh12573" route="route2" type="Car" />
  <vehicle depart="1" id="veh19080" route="route5" type="Car" />
  <vehicle depart="1" id="veh19290" route="route5" type="Car" />
  <vehicle depart="1" id="veh19399" route="route5" type="Car" />
  <vehicle depart="1" id="veh27896" route="route7" type="Car" />
  <vehicle depart="1" id="veh27973" route="route7" type="Car" />
  <vehicle depart="1" id="veh35595" route="route8" type="Car" />
  <vehicle depart="2" id="veh1061" route="route0" type="Car" />
  <vehicle depart="2" id="veh1712" route="route0" type="Car" />
  <vehicle depart="2" id="veh6373" route="route1" type="Car" />
  <vehicle depart="2" id="veh9923" route="route2" type="Car" />
  <vehicle depart="2" id="veh11909" route="route2" type="Car" />
  <vehicle depart="2" id="veh12936" route="route2" type="Car" />
  <vehicle depart="2" id="veh18791" route="route5" type="Car" />
  <vehicle depart="2" id="veh19525" route="route5" type="Car" />
  <vehicle depart="2" id="veh20763" route="route5" type="Car" />
  <vehicle depart="2" id="veh22210" route="route5" type="Car" />
  <vehicle depart="2" id="veh35658" route="route8" type="Car" />
  <vehicle depart="3" id="veh1802" route="route0" type="Car" />
  <vehicle depart="3" id="veh5122" route="route1" type="Car" />
  <vehicle depart="3" id="veh6213" route="route1" type="Car" />
  <vehicle depart="3" id="veh7074" route="route1" type="Car" />
  <vehicle depart="3" id="veh8669" route="route2" type="Car" />
  <vehicle depart="3" id="veh15389" route="route3" type="Car" />
  <vehicle depart="3" id="veh16017" route="route3" type="Car" />
  <vehicle depart="3" id="veh20941" route="route5" type="Car" />
  <vehicle depart="3" id="veh25190" route="route6" type="Car" />
  <vehicle depart="3" id="veh25333" route="route6" type="Car" />
  <vehicle depart="3" id="veh25795" route="route6" type="Car" />
  <vehicle depart="3" id="veh26636" route="route6" type="Car" />
  <vehicle depart="3" id="veh27720" route="route7" type="Car" />
  <vehicle depart="3" id="veh28530" route="route7" type="Car" />
  <vehicle depart="3" id="veh28554" route="route7" type="Car" />
  <vehicle depart="3" id="veh30601" route="route7" type="Car" />
  <vehicle depart="4" id="veh1432" route="route0" type="Car" />
  <vehicle depart="4" id="veh1760" route="route0" type="Car" />
  <vehicle depart="4" id="veh4250" route="route0" type="Car" />
  <vehicle depart="4" id="veh5142" route="route1" type="Car" />
  <vehicle depart="4" id="veh6124" route="route1" type="Car" />
  <vehicle depart="4" id="veh7222" route="route1" type="Car" />
  <vehicle depart="4" id="veh8119" route="route1" type="Car" />
  <vehicle depart="4" id="veh13410" route="route3" type="Car" />
  <vehicle depart="4" id="veh14268" route="route3" type="Car" />
  <vehicle depart="4" id="veh18627" route="route5" type="Car" />
  <vehicle depart="4" id="veh22244" route="route5" type="Car" />
  <vehicle depart="4" id="veh23746" route="route6" type="Car" />
  <vehicle depart="4" id="veh25766" route="route6" type="Car" />
  <vehicle depart="4" id="veh28865" route="route7" type="Car" />
  <vehicle depart="4" id="veh30391" route="route7" type="Car" />
  <vehicle depart="5" id="veh4268" route="route0" type="Car" />
  <vehicle depart="5" id="veh5637" route="route1" type="Car" />
  <vehicle depart="5" id="veh8998" route="route2" type="Car" />
  <vehicle depart="5" id="veh10866" route="route2" type="Car" />
  <vehicle depart="5" id="veh27010" route="route7" type="Car" />
  <vehicle depart="5" id="veh29836" route="route7" type="Car" />
  <vehicle depart="5" id="veh30291" route="route7" type="Car" />
  <vehicle depart="5" id="veh32289" route="route8" type="Car" />
  <vehicle depart="5" id="veh34157" route="route8" type="Car" />
  <vehicle depart="6" id="veh2193" route="route0" type="Car" />
  <vehicle depart="6" id="veh2853" route="route0" type="Car" />
  <vehicle depart="6" id="veh3984" route="route0" type="Car" />
  <vehicle depart="6" id="veh4170" route="route0" type="Car" />
  <vehicle depart="6" id="veh7831" route="route1" type="Car" />
  <vehicle depart="6" id="veh11018" route="route2" type="Car" />
  <vehicle depart="6" id="veh11522" route="route2" type="Car" />
  <vehicle depart="6" id="veh20009" route="route5" type="Car" />
  <vehicle depart="6" id="veh29294" route="route7" type="Car" />
  <vehicle depart="6" id="veh30310" route="route7" type="Car" />
  <vehicle depart="6" id="veh32627" route="route8" type="Car" />
  <vehicle depart="7" id="veh4622" route="route1" type="Car" />
  <vehicle depart="7" id="veh9321" route="route2" type="Car" />
  <vehicle depart="7" id="veh14976" route="route3" type="Car" />
  <vehicle depart="7" id="veh18271" route="route5" type="Car" />
  <vehicle depart="7" id="veh20795" route="route5" type="Car" />
  <vehicle depart="7" id="veh22294" route="route5" type="Car" />
  <vehicle depart="7" id="veh24611" route="route6" type="Car" />
  <vehicle depart="7" id="veh26089" route="route6" type="Car" />
  <vehicle depart="7" id="veh27546" route="route7" type="Car" />
  <vehicle depart="7" id="veh34732" route="route8" type="Car" />
  <vehicle depart="7" id="veh35879" route="route8" type="Car" />
  <vehicle depart="7" id="veh36608" route="route9" type="Car" />
  <vehicle depart="8" id="veh7232" route="route1" type="Car" />
  <vehicle depart="8" id="veh10346" route="route2" type="Car" />
  <vehicle depart="8" id="veh12360" route="route2" type="Car" />
  <vehicle depart="8" id="veh14880" route="route3" type="Car" />
  <vehicle depart="8" id="veh16464" route="route3" type="Car" />
  <vehicle depart="8" id="veh25091" route="route6" type="Car" />
  <vehicle depart="8" id="veh28887" route="route7" type="Car" />
  <vehicle depart="9" id="veh314" route="route0" type="Car" />
  <vehicle depart="9" id="veh1230" route="route0" type="Car" />
  <vehicle depart="9" id="veh1811" route="route0" type="Car" />
  <vehicle depart="9" id="veh3854" route="route0" type="Car" />
  <vehicle depart="9" id="veh16295" route="route3" type="Car" />
  <vehicle depart="9" id="veh19082" route="route5" type="Car" />
  <vehicle depart="9" id="veh21422" route="route5" type="Car" />
  <vehicle depart="9" id="veh22456" route="route5" type="Car" />
  <vehicle depart="9" id="veh24082" route="route6" type="Car" />
  <vehicle depart="9" id="veh28371" route="route7" type="Car" />
  <vehicle depart="9" id="veh28642" route="route7" type="Car" />
  <vehicle depart="9" id="veh31668" route="route7" type="Car" />
  <vehicle depart="9" id="veh31918" route="route8" type="Car" />
  <vehicle depart="9" id="veh32654" route="route8" type="Car" />
  <vehicle depart="9" id="veh32709" route="route8" type="Car" />
  <vehicle depart="10" id="veh611" route="route0" type="Car" />
  <vehicle depart="10" id="veh1137" route="route0" type="Car" />
  <vehicle depart="10" id="veh5013" route="route1" type="Car" />
  <vehicle depart="10" id="veh10521" route="route2" type="Car" />
  <vehicle depart="10" id="veh11183" route="route2" type="Car" />
  <vehicle depart="10" id="veh12239" route="route2" type="Car" />
  <vehicle depart="10" id="veh12805" route="route2" type="Car" />
  <vehicle depart="10" id="veh17788" route="route5" type="Car" />
  <vehicle depart="10" id="veh23130" route="route6" type="Car" />
  <vehicle depart="10" id="veh28242" route="route7" type="Car" />
  <vehicle depart="10" id="veh32448" route="route8" type="Car" />
  <vehicle depart="10" id="veh33922" route="route8" type="Car" />
  <vehicle depart="10" id="veh35588" route="route8" type="Car" />
  <vehicle depart="11" id="veh1277" route="route0" type="Car" />
  <vehicle depart="11" id="veh5903" route="route1" type="Car" />
  <vehicle depart="11" id="veh13632" route="route3" type="Car" />
  <vehicle depart="11" id="veh19607" route="route5" type="Car" />
  <vehicle depart="11" id="veh24993" route="route6" type="Car" />
  <vehicle depart="11" id="veh27002" route="route7" type="Car" />
  <vehicle depart="11" id="veh29085" route="route7" type="Car" />
  <vehicle depart="11" id="veh33857" route="route8" type="Car" />
  <vehicle depart="12" id="veh1891" route="route0" type="Car" />
  <vehicle depart="12" id="veh2956" route="route0" type="Car" />
  <vehicle depart="12" id="veh5674" route="route1" type="Car" />
  <vehicle depart="12" id="veh6063" route="route1" type="Car" />
  <vehicle depart="12" id="veh13120" route="route2" type="Car" />
  <vehicle depart="12" id="veh17771" route="route5" type="Car" />
  <vehicle depart="12" id="veh19034" route="route5" type="Car" />
  <vehicle depart="12" id="veh21722" route="route5" type="Car" />
  <vehicle depart="12" id="veh24136" route="route6" type="Car" />
  <vehicle depart="12" id="veh25080" route="route6" type="Car" />
  <vehicle depart="12" id="veh26254" route="route6" type="Car" />
  <vehicle depart="12" id="veh30542" route="route7" type="Car" />
  <vehicle depart="12" id="veh33306" route="route8" type="Car" />
  <vehicle depart="12" id="veh35853" route="route8" type="Car" />
  <vehicle depart="13" id="veh13876" route="route3" type="Car" />
  <vehicle depart="13" id="veh14146" route="route3" type="Car" />
  <vehicle depart="13" id="veh15471" route="route3" type="Car" />
  <vehicle depart="13" id="veh27876" route="route7" type="Car" />
  <vehicle depart="13" id="veh28375" route="route7" type="Car" />
  <vehicle depart="13" id="veh30985" route="route7" type="Car" />
  <vehicle depart="13" id="veh34562" route="route8" type="Car" />
  <vehicle depart="13" id="veh36073" route="route8" type="Car" />
  <vehicle depart="14" id="veh1046" route="route0" type="Car" />
  <vehicle depart="14" id="veh1771" route="route0" type="Car" />
  <vehicle depart="14" id="veh6555" route="route1" type="Car" />
  <vehicle depart="14" id="veh7491" route="route1" type="Car" />
  <vehicle depart="14" id="veh8625" route="route2" type="Car" />
  <vehicle depart="14" id="veh8737" route="route2" type="Car" />
  <vehicle depart="14" id="veh10105" route="route2" type="Car" />
  <vehicle depart="14" id="veh12990" route="route2" type="Car" />
  <vehicle depart="14" id="veh22525" route="route5" type="Car" />
  <vehicle depart="14" id="veh25227" route="route6" type="Car" />
  <vehicle depart="14" id="veh26236" route="route6" type="Car" />
  <vehicle depart="14" id="veh29582" route="route7" type="Car" />
  <vehicle depart="14" id="veh33405" route="route8" type="Car" />
  <vehicle depart="14" id="veh34548" route="route8" type="Car" />
  <vehicle depart="15" id="veh5994" route="route1" type="Car" />
  <vehicle depart="15" id="veh8507" route="route1" type="Car" />
  <vehicle depart="15" id="veh9868" route="route2" type="Car" />
  <vehicle depart="15" id="veh15945" route="route3" type="Car" />
  <vehicle depart="15" id="veh16011" route="route3" type="Car" />
  <vehicle depart="15" id="veh24421" route="route6" type="Car" />
  <vehicle depart="15" id="veh24829" route="route6" type="Car" />
  <vehicle depart="15" id="veh26661" route="route6" type="Car" />
  <vehicle depart="15" id="veh27567" route="route7" type="Car" />
  <vehicle depart="16" id="veh702" route="route0" type="Car" />
  <vehicle depart="16" id="veh755" route="route0" type="Car" />
  <vehicle depart="16" id="veh7586" route="route1" type="Car" />
  <vehicle depart="16" id="veh8217" route="route1" type="Car" />
  <vehicle depart="16" id="veh9331" route="route2" type="Car" />
  <vehicle depart="16" id="veh19439" route="route5" type="Car" />
  <vehicle depart="16" id="veh22812" route="route5" type="Car" />
  <vehicle depart="16" id="veh23264" route="route6" type="Car" />
  <vehicle depart="16" id="veh29228" route="route7" type="Car" />
  <vehicle depart="17" id="veh4256" route="route0" type="Car" />
  <vehicle depart="17" id="veh4442" route="route0" type="Car" />
  <vehicle depart="17" id="veh8999" route="route2" type="Car" />
  <vehicle depart="17" id="veh15155" route="route3" type="Car" />
  <vehicle depart="17" id="veh15627" route="route3" type="Car" />
  <vehicle depart="17" id="veh29138" route="route7" type="Car" />
  <vehicle depart="17" id="veh31857" route="route8" type="Car" />
  <vehicle depart="18" id="veh2062" route="route0" type="Car" />
  <vehicle depart="18" id="veh7425" route="route1" type="Car" />
  <vehicle depart="18" id="veh9933" route="route2" type="Car" />
  <vehicle depart="18" id="veh9942" route="route2" type="Car" />
  <vehicle depart="18" id="veh16942" route="route3" type="Car" />
  <vehicle depart="18" id="veh26697" route="route6" type="Car" />
  <vehicle depart="18" id="veh28212" route="route7" type="Car" />
  <vehicle depart="18" id="veh32219" route="route8" type="Car" />
  <vehicle depart="18" id="veh33156" route="route8" type="Car" />
  <vehicle depart="18" id="veh33607" route="route8" type="Car" />
  <vehicle depart="19" id="veh810" route="route0" type="Car" />
  <vehicle depart="19" id="veh1982" route="route0" type="Car" />
  <vehicle depart="19" id="veh10433" route="route2" type="Car" />
  <vehicle depart="19" id="veh15617" route="route3" type="Car" />
  <vehicle depart="19" id="veh29756" route="route7" type="Car" />
  <vehicle depart="20" id="veh1035" route="route0" type="Car" />
  <vehicle depart="20" id="veh10078" route="route2" type="Car" />
  <vehicle depart="20" id="veh14550" route="route3" type="Car" />
  <vehicle depart="20" id="veh16152" route="route3" type="Car" />
  <vehicle depart="20" id="veh18987" route="route5" type="Car" />
  <vehicle depart="20" id="veh23446" route="route6" type="Car" />
  <vehicle depart="20" id="veh28418" route="route7" type="Car" />
  <vehicle depart="20" id="veh29096" route="route7" type="Car" />
  <vehicle depart="21" id="veh3580" route="route0" type="Car" />
  <vehicle depart="21" id="veh5150" route="route1" type="Car" />
  <vehicle depart="21" id="veh18280" route="route5" type="Car" />
  <vehicle depart="21" id="veh18554" route="route5" type="Car" />
  <vehicle depart="21" id="veh20766" route="route5" type="Car" />
  <vehicle depart="21" id="veh22376" route="route5" type="Car" />
  <vehicle depart="21" id="veh24200" route="route6" type="Car" />
  <vehicle depart="21" id="veh25694" route="route6" type="Car" />
  <vehicle depart="22" id="veh1532" route="route0" type="Car" />
  <vehicle depart="22" id="veh3585" route="route0" type="Car" />
  <vehicle depart="22" id="veh4060" route="route0" type="Car" />
  <vehicle depart="22" id="veh9472" route="route2" type="Car" />
  <vehicle depart="22" id="veh12946" route="route2" type="Car" />
  <vehicle depart="22" id="veh18005" route="route5" type="Car" />
  <vehicle depart="22" id="veh19060" route="route5" type="Car" />
  <vehicle depart="22" id="veh19663" route="route5" type="Car" />
  <vehicle depart="22" id="veh22928" route="route6" type="Car" />
  <vehicle depart="22" id="veh28168" route="route7" type="Car" />
  <vehicle depart="22" id="veh29176" route="route7" type="Car" />
  <vehicle depart="22" id="veh33873" route="route8" type="Car" />
  <vehicle depart="23" id="veh980" route="route0" type="Car" />
  <vehicle depart="23" id="veh3838" route="route0" type="Car" />
  <vehicle depart="23" id="veh8174" route="route1" type="Car" />
  <vehicle depart="23" id="veh15148" route="route3" type="Car" />
  <vehicle depart="23" id="veh18460" route="route5" type="Car" />
  <vehicle depart="23" id="veh19944" route="route5" type="Car" />
  <vehicle depart="23" id="veh20484" route="route5" type="Car" />
  <vehicle depart="23" id="veh21079" route="route5" type="Car" />
  <vehicle depart="23" id="veh25657" route="route6" type="Car" />
  <vehicle depart="23" id="veh27400" route="route7" type="Car" />
  <vehicle depart="23" id="veh29769" route="route7" type="Car" />
  <vehicle depart="23" id="veh30353" route="route7" type="Car" />
  <vehicle depart="23" id="veh34018" route="route8" type="Car" />
  <vehicle depart="24" id="veh977" route="route0" type="Car" />
  <vehicle depart="24" id="veh1055" route="route0" type="Car" />
  <vehicle depart="24" id="veh1224" route="route0" type="Car" />
  <vehicle depart="24" id="veh5412" route="route1" type="Car" />
  <vehicle depart="24" id="veh5572" route="route1" type="Car" />
  <vehicle depart="24" id="veh8831" route="route2" type="Car" />
  <vehicle depart="24" id="veh9172" route="route2" type="Car" />
  <vehicle depart="24" id="veh11867" route="route2" type="Car" />
  <vehicle depart="24" id="veh12027" route="route2" type="Car" />
  <vehicle depart="24" id="veh14375" route="route3" type="Car" />
  <vehicle depart="24" id="veh20887" route="route5" type="Car" />
  <vehicle depart="24" id="veh21194" route="route5" type="Car" />
  <vehicle depart="24" id="veh22440" route="route5" type="Car" />
  <vehicle depart="24" id="veh27201" route="route7" type="Car" />
  <vehicle depart="24" id="veh28425" route="route7" type="Car" />
  <vehicle depart="24" id="veh28846" route="route7" type="Car" />
  <vehicle depart="24" id="veh29991" route="route7" type="Car" />
  <vehicle depart="24" id="veh33241" route="route8" type="Car" />
  <vehicle depart="24" id="veh33864" route="route8" type="Car" />
  <vehicle depart="24" id="veh34619" route="route8" type="Car" />
  <vehicle depart="24" id="veh35928" route="route8" type="Car" />
  <vehicle depart="25" id="veh5409" route="route1" type="Car" />
  <vehicle depart="25" id="veh6998" route="route1" type="Car" />
  <vehicle depart="25" id="veh10697" route="route2" type="Car" />
  <vehicle depart="25" id="veh26117" route="route6" type="Car" />
  <vehicle depart="25" id="veh28163" route="route7" type="Car" />
  <vehicle depart="25" id="veh28798" route="route7" type="Car" />
  <vehicle depart="25" id="veh34662" route="route8" type="Car" />
  <vehicle depart="26" id="veh4094" route="route0" type="Car" />
  <vehicle depart="26" id="veh6602" route="route1" type="Car" />
  <vehicle depart="26" id="veh14299" route="route3" type="Car" />
  <vehicle depart="26" id="veh14721" route="route3" type="Car" />
  <vehicle depart="26" id="veh21529" route="route5" type="Car" />
  <vehicle depart="26" id="veh22503" route="route5" type="Car" />
  <vehicle depart="26" id="veh34214" route="route8" type="Car" />
  <vehicle depart="26" id="veh35007" route="route8" type="Car" />
  <vehicle depart="26" id="veh35478" route="route8" type="Car" />
  <vehicle depart="27" id="veh622" route="route0" type="Car" />
  <vehicle depart="27" id="veh6619" route="route1" type="Car" />
  <vehicle depart="27" id="veh10171" route="route2" type="Car" />
  <vehicle depart="27" id="veh17209" route="route3" type="Car" />
  <vehicle depart="27" id="veh17733" route="route4" type="Car" />
  <vehicle depart="27" id="veh18831" route="route5" type="Car" />
  <vehicle depart="27" id="veh20621" route="route5" type="Car" />
  <vehicle depart="27" id="veh21744" route="route5" type="Car" />
  <vehicle depart="27" id="veh29300" route="route7" type="Car" />
  <vehicle depart="27" id="veh31846" route="route8" type="Car" />
  <vehicle depart="27" id="veh34499" route="route8" type="Car" />
  <vehicle depart="28" id="veh3937" route="route0" type="Car" />
  <vehicle depart="28" id="veh5736" route="route1" type="Car" />
  <vehicle depart="28" id="veh8651" route="route2" type="Car" />
  <vehicle depart="28" id="veh12665" route="route2" type="Car" />
  <vehicle depart="28" id="veh17618" route="route3" type="Car" />
  <vehicle depart="28" id="veh20277" route="route5" type="Car" />
  <vehicle depart="28" id="veh20703" route="route5" type="Car" />
  <vehicle depart="28" id="veh30831" route="route7" type="Car" />
  <vehicle depart="28" id="veh31863" route="route8" type="Car" />
  <vehicle depart="28" id="veh32005" route="route8" type="Car" />
  <vehicle depart="29" id="veh391" route="route0" type="Car" />
  <vehicle depart="29" id="veh678" route="route0" type="Car" />
  <vehicle depart="29" id="veh1141" route="route0" type="Car" />
  <vehicle depart="29" id="veh1509" route="route0" type="Car" />
  <vehicle depart="29" id="veh1932" route="route0" type="Car" />
  <vehicle depart="29" id="veh3845" route="route0" type="Car" />
  <vehicle depart="29" id="veh10419" route="route2" type="Car" />
  <vehicle depart="29" id="veh13907" route="route3" type="Car" />
  <vehicle depart="29" id="veh19073" route="route5" type="Car" />
  <vehicle depart="29" id="veh26261" route="route6" type="Car" />
  <vehicle depart="29" id="veh26591" route="route6" type="Car" />
  <vehicle depart="29" id="veh27051" route="route7" type="Car" />
  <vehicle depart="29" id="veh33322" route="route8" type="Car" />
  <vehicle depart="29" id="veh33356" route="route8" type="Car" />
  <vehicle depart="30" id="veh4218" route="route0" type="Car" />
  <vehicle depart="30" id="veh4546" route="route1" type="Car" />
  <vehicle depart="30" id="veh7622" route="route1" type="Car" />
  <vehicle depart="30" id="veh11236" route="route2" type="Car" />
  <vehicle depart="30" id="veh15966" route="route3" type="Car" />
  <vehicle depart="30" id="veh16685" route="route3" type="Car" />
  <vehicle depart="30" id="veh16933" route="route3" type="Car" />
  <vehicle depart="30" id="veh19328" route="route5" type="Car" />
  <vehicle depart="30" id="veh23991" route="route6" type="Car" />
  <vehicle depart="30" id="veh30450" route="route7" type="Car" />
  <vehicle depart="30" id="veh31505" route="route7" type="Car" />
  <vehicle depart="31" id="veh10335" route="route2" type="Car" />
  <vehicle depart="31" id="veh12843" route="route2" type="Car" />
  <vehicle depart="31" id="veh13439" route="route3" type="Car" />
  <vehicle depart="31" id="veh21024" route="route5" type="Car" />
  <vehicle depart="31" id="veh21747" route="route5" type="Car" />
  <vehicle depart="31" id="veh22044" route="route5" type="Car" />
  <vehicle depart="31" id="veh28066" route="route7" type="Car" />
  <vehicle depart="31" id="veh29312" route="route7" type="Car" />
  <vehicle depart="32" id="veh1854" route="route0" type="Car" />
  <vehicle depart="32" id="veh1887" route="route0" type="Car" />
  <vehicle depart="32" id="veh8514" route="route1" type="Car" />
  <vehicle depart="32" id="veh8840" route="route2" type="Car" />
  <vehicle depart="32" id="veh10092" route="route2" type="Car" />
  <vehicle depart="32" id="veh10730" route="route2" type="Car" />
  <vehicle depart="32" id="veh29627" route="route7" type="Car" />
  <vehicle depart="32" id="veh32283" route="route8" type="Car" />
  <vehicle depart="33" id="veh2181" route="route0" type="Car" />
  <vehicle depart="33" id="veh7244" route="route1" type="Car" />
  <vehicle depart="33" id="veh9187" route="route2" type="Car" />
  <vehicle depart="33" id="veh10102" route="route2" type="Car" />
  <vehicle depart="33" id="veh13036" route="route2" type="Car" />
  <vehicle depart="33" id="veh13908" route="route3" type="Car" />
  <vehicle depart="33" id="veh15425" route="route3" type="Car" />
  <vehicle depart="33" id="veh16173" route="route3" type="Car" />
  <vehicle depart="33" id="veh22054" route="route5" type="Car" />
  <vehicle depart="33" id="veh25965" route="route6" type="Car" />
  <vehicle depart="33" id="veh28667" route="route7" type="Car" />
  <vehicle depart="33" id="veh33366" route="route8" type="Car" />
  <vehicle depart="34" id="veh682" route="route0" type="Car" />
  <vehicle depart="34" id="veh1116" route="route0" type="Car" />
  <vehicle depart="34" id="veh1531" route="route0" type="Car" />
  <vehicle depart="34" id="veh2663" route="route0" type="Car" />
  <vehicle depart="34" id="veh4773" route="route1" type="Car" />
  <vehicle depart="34" id="veh6814" route="route1" type="Car" />
  <vehicle depart="34" id="veh8399" route="route1" type="Car" />
  <vehicle depart="34" id="veh12635" route="route2" type="Car" />
  <vehicle depart="34" id="veh14581" route="route3" type="Car" />
  <vehicle depart="34" id="veh26933" route="route7" type="Car" />
  <vehicle depart="34" id="veh28696" route="route7" type="Car" />
  <vehicle depart="34" id="veh29969" route="route7" type="Car" />
  <vehicle depart="34" id="veh31771" route="route7" type="Car" />
  <vehicle depart="35" id="veh5916" route="route1" type="Car" />
  <vehicle depart="35" id="veh9086" route="route2" type="Car" />
  <vehicle depart="35" id="veh18629" route="route5" type="Car" />
  <vehicle depart="35" id="veh26486" route="route6" type="Car" />
  <vehicle depart="35" id="veh26944" route="route7" type="Car" />
  <vehicle depart="35" id="veh32557" route="route8" type="Car" />
  <vehicle depart="35" id="veh36308" route="route8" type="Car" />
  <vehicle depart="36" id="veh13650" route="route3" type="Car" />
  <vehicle depart="36" id="veh16169" route="route3" type="Car" />
  <vehicle depart="36" id="veh16275" route="route3" type="Car" />
  <vehicle depart="36" id="veh17467" route="route3" type="Car" />
  <vehicle depart="36" id="veh22270" route="route5" type="Car" />
  <vehicle depart="36" id="veh31912" route="route8" type="Car" />
  <vehicle depart="36" id="veh32664" route="route8" type="Car" />
  <vehicle depart="37" id="veh5941" route="route1" type="Car" />
  <vehicle depart="37" id="veh6388" route="route1" type="Car" />
  <vehicle depart="37" id="veh7424" route="route1" type="Car" />
  <vehicle depart="37" id="veh13776" route="route3" type="Car" />
  <vehicle depart="37" id="veh15315" route="route3" type="Car" />
  <vehicle depart="37" id="veh20350" route="route5" type="Car" />
  <vehicle depart="37" id="veh22020" route="route5" type="Car" />
  <vehicle depart="37" id="veh26890" route="route6" type="Car" />
  <vehicle depart="37" id="veh27309" route="route7" type="Car" />
  <vehicle depart="37" id="veh30777" route="route7" type="Car" />
  <vehicle depart="37" id="veh32580" route="route8" type="Car" />
  <vehicle depart="38" id="veh2939" route="route0" type="Car" />
  <vehicle depart="38" id="veh7187" route="route1" type="Car" />
  <vehicle depart="38" id="veh12418" route="route2" type="Car" />
  <vehicle depart="38" id="veh16791" route="route3" type="Car" />
  <vehicle depart="38" id="veh26953" route="route7" type="Car" />
  <vehicle depart="38" id="veh30537" route="route7" type="Car" />
  <vehicle depart="38" id="veh34049" route="route8" type="Car" />
  <vehicle depart="39" id="veh10794" route="route2" type="Car" />
  <vehicle depart="39" id="veh11745" route="route2" type="Car" />
  <vehicle depart="39" id="veh12295" route="route2" type="Car" />
  <vehicle depart="39" id="veh14681" route="route3" type="Car" />
  <vehicle depart="39" id="veh15179" route="route3" type="Car" />
  <vehicle depart="39" id="veh19173" route="route5" type="Car" />
  <vehicle depart="39" id="veh20560" route="route5" type="Car" />
  <vehicle depart="39" id="veh21831" route="route5" type="Car" />
  <vehicle depart="39" id="veh23522" route="route6" type="Car" />
  <vehicle depart="39" id="veh28557" route="route7" type="Car" />
  <vehicle depart="39" id="veh32267" route="route8" type="Car" />
  <vehicle depart="40" id="veh1335" route="route0" type="Car" />
  <vehicle depart="40" id="veh2386" route="route0" type="Car" />
  <vehicle depart="40" id="veh2795" route="route0" type="Car" />
  <vehicle depart="40" id="veh4688" route="route1" type="Car" />
  <vehicle depart="40" id="veh11719" route="route2" type="Car" />
  <vehicle depart="40" id="veh14411" route="route3" type="Car" />
  <vehicle depart="40" id="veh21853" route="route5" type="Car" />
  <vehicle depart="40" id="veh23809" route="route6" type="Car" />
  <vehicle depart="40" id="veh28095" route="route7" type="Car" />
  <vehicle depart="41" id="veh2251" route="route0" type="Car" />
  <vehicle depart="41" id="veh21244" route="route5" type="Car" />
  <vehicle depart="41" id="veh23069" route="route6" type="Car" />
  <vehicle depart="41" id="veh25150" route="route6" type="Car" />
  <vehicle depart="41" id="veh25256" route="route6" type="Car" />
  <vehicle depart="41" id="veh26003" route="route6" type="Car" />
  <vehicle depart="41" id="veh32792" route="route8" type="Car" />
  <vehicle depart="42" id="veh5560" route="route1" type="Car" />
  <vehicle depart="42" id="veh8802" route="route2" type="Car" />
  <vehicle depart="42" id="veh20006" route="route5" type="Car" />
  <vehicle depart="42" id="veh21415" route="route5" type="Car" />
  <vehicle depart="42" id="veh27292" route="route7" type="Car" />
  <vehicle depart="42" id="veh28361" route="route7" type="Car" />
  <vehicle depart="42" id="veh28477" route="route7" type="Car" />
  <vehicle depart="42" id="veh28988" route="route7" type="Car" />
  <vehicle depart="43" id="veh781" route="route0" type="Car" />
  <vehicle depart="43" id="veh5718" route="route1" type="Car" />
  <vehicle depart="43" id="veh8208" route="route1" type="Car" />