<configuration>
   <input>
      <net-file value="test2.net.xml"/>
      <route-files value="optimal.rou.xml"/>
      <additional-files value="test2.add.xml"/>
   </input>
   <time>
      <begin value="0"/>
      <end value="10000"/>
   </time>
</configuration>