<?xml version='1.0' encoding='utf-8'?>
<routes>
  <vType accel="1.0" decel="5.0" id="Car" length="2.0" maxSpeed="70.0" sigma="0.0" />
  <route id="route0" edges="1_3i 1_0o r1_1_0 0_1i 0_0o" />
  <route id="route1" edges="1_3i 1_2o r2_1_2 2_0i 2_2o" />
  <route id="route2" edges="1_3i 1_1o r5_1_4 4_3i 4_0o" />
  <route id="route3" edges="1_3i 1_1o r5_1_4 4_3i 4_2o r4_4_3 3_0i 3_1o" />
  <route id="route4" edges="1_3i 1_2o r2_1_2 2_0i 2_1o r3_2_3 3_3i 3_1o" />
  <route id="route5" edges="1_3i 1_1o r5_1_4 4_3i 4_2o r4_4_3 3_0i 3_2o" />
  <route id="route6" edges="1_3i 1_2o r2_1_2 2_0i 2_1o r3_2_3 3_3i 3_2o" />
  <route id="route7" edges="2_2i 2_0o r2_2_1 1_2i 1_0o r1_1_0 0_1i 0_2o" />
  <route id="route8" edges="2_2i 2_0o r2_2_1 1_2i 1_3o" />
  <route id="route9" edges="2_2i 2_1o r3_2_3 3_3i 3_0o r4_3_4 4_2i 4_0o" />
  <route id="route10" edges="2_2i 2_0o r2_2_1 1_2i 1_1o r5_1_4 4_3i 4_1o" />
  <route id="route11" edges="2_2i 2_1o r3_2_3 3_3i 3_0o r4_3_4 4_2i 4_1o" />
  <route id="route12" edges="2_2i 2_1o r3_2_3 3_3i 3_1o" />
  <vehicle depart="0" id="veh2454" route="route1" type="Car" />
  <vehicle depart="0" id="veh4631" route="route2" type="Car" />
  <vehicle depart="0" id="veh5102" route="route4" type="Car" />
  <vehicle depart="0" id="veh6321" route="route5" type="Car" />
  <vehicle depart="0" id="veh6820" route="route5" type="Car" />
  <vehicle depart="0" id="veh7600" route="route5" type="Car" />
  <vehicle depart="0" id="veh9955" route="route7" type="Car" />
  <vehicle depart="0" id="veh12013" route="route8" type="Car" />
  <vehicle depart="0" id="veh12534" route="route10" type="Car" />
  <vehicle depart="0" id="veh13791" route="route10" type="Car" />
  <vehicle depart="1" id="veh4885" route="route3" type="Car" />
  <vehicle depart="1" id="veh7743" route="route5" type="Car" />
  <vehicle depart="1" id="veh8707" route="route6" type="Car" />
  <vehicle depart="1" id="veh8948" route="route7" type="Car" />
  <vehicle depart="1" id="veh10642" route="route7" type="Car" />
  <vehicle depart="1" id="veh12464" route="route10" type="Car" />
  <vehicle depart="1" id="veh14340" route="route11" type="Car" />
  <vehicle depart="2" id="veh5127" route="route4" type="Car" />
  <vehicle depart="2" id="veh7122" route="route5" type="Car" />
  <vehicle depart="2" id="veh7661" route="route5" type="Car" />
  <vehicle depart="2" id="veh10173" route="route7" type="Car" />
  <vehicle depart="3" id="veh542" route="route0" type="Car" />
  <vehicle depart="3" id="veh1217" route="route1" type="Car" />
  <vehicle depart="3" id="veh10077" route="route7" type="Car" />
  <vehicle depart="3" id="veh16278" route="route12" type="Car" />
  <vehicle depart="4" id="veh553" route="route0" type="Car" />
  <vehicle depart="4" id="veh1393" route="route1" type="Car" />
  <vehicle depart="4" id="veh7200" route="route5" type="Car" />
  <vehicle depart="4" id="veh8661" route="route6" type="Car" />
  <vehicle depart="4" id="veh9284" route="route7" type="Car" />
  <vehicle depart="4" id="veh10632" route="route7" type="Car" />
  <vehicle depart="4" id="veh11104" route="route7" type="Car" />
  <vehicle depart="4" id="veh11571" route="route7" type="Car" />
  <vehicle depart="4" id="veh12957" route="route10" type="Car" />
  <vehicle depart="4" id="veh15970" route="route11" type="Car" />
  <vehicle depart="5" id="veh5280" route="route4" type="Car" />
  <vehicle depart="5" id="veh6670" route="route5" type="Car" />
  <vehicle depart="5" id="veh9385" route="route7" type="Car" />
  <vehicle depart="5" id="veh11627" route="route7" type="Car" />
  <vehicle depart="5" id="veh16003" route="route11" type="Car" />
  <vehicle depart="6" id="veh2138" route="route1" type="Car" />
  <vehicle depart="6" id="veh2663" route="route1" type="Car" />
  <vehicle depart="6" id="veh4308" route="route2" type="Car" />
  <vehicle depart="6" id="veh4399" route="route2" type="Car" />
  <vehicle depart="6" id="veh7547" route="route5" type="Car" />
  <vehicle depart="6" id="veh10352" route="route7" type="Car" />
  <vehicle depart="6" id="veh16390" route="route12" type="Car" />
  <vehicle depart="7" id="veh6654" route="route5" type="Car" />
  <vehicle depart="8" id="veh4941" route="route3" type="Car" />
  <vehicle depart="8" id="veh5704" route="route4" type="Car" />
  <vehicle depart="8" id="veh6488" route="route5" type="Car" />
  <vehicle depart="8" id="veh11659" route="route7" type="Car" />
  <vehicle depart="9" id="veh8831" route="route6" type="Car" />
  <vehicle depart="9" id="veh12083" route="route8" type="Car" />
  <vehicle depart="9" id="veh12479" route="route10" type="Car" />
  <vehicle depart="9" id="veh15851" route="route11" type="Car" />
  <vehicle depart="9" id="veh16263" route="route12" type="Car" />
  <vehicle depart="9" id="veh16737" route="route12" type="Car" />
  <vehicle depart="10" id="veh5019" route="route3" type="Car" />
  <vehicle depart="10" id="veh12550" route="route10" type="Car" />
  <vehicle depart="11" id="veh4485" route="route2" type="Car" />
  <vehicle depart="11" id="veh10605" route="route7" type="Car" />
  <vehicle depart="12" id="veh700" route="route0" type="Car" />
  <vehicle depart="12" id="veh11544" route="route7" type="Car" />
  <vehicle depart="12" id="veh13030" route="route10" type="Car" />
  <vehicle depart="12" id="veh15560" route="route11" type="Car" />
  <vehicle depart="13" id="veh3092" route="route1" type="Car" />
  <vehicle depart="13" id="veh8383" route="route5" type="Car" />
  <vehicle depart="13" id="veh16304" route="route12" type="Car" />
  <vehicle depart="14" id="veh1486" route="route1" type="Car" />
  <vehicle depart="14" id="veh2347" route="route1" type="Car" />
  <vehicle depart="14" id="veh10259" route="route7" type="Car" />
  <vehicle depart="14" id="veh11768" route="route8" type="Car" />
  <vehicle depart="14" id="veh13711" route="route10" type="Car" />
  <vehicle depart="14" id="veh16751" route="route12" type="Car" />
  <vehicle depart="15" id="veh2206" route="route1" type="Car" />
  <vehicle depart="15" id="veh5745" route="route4" type="Car" />
  <vehicle depart="15" id="veh9000" route="route7" type="Car" />
  <vehicle depart="15" id="veh10873" route="route7" type="Car" />
  <vehicle depart="15" id="veh12318" route="route9" type="Car" />
  <vehicle depart="15" id="veh15244" route="route11" type="Car" />
  <vehicle depart="16" id="veh1118" route="route0" type="Car" />
  <vehicle depart="16" id="veh3526" route="route1" type="Car" />
  <vehicle depart="16" id="veh3554" route="route1" type="Car" />
  <vehicle depart="16" id="veh4014" route="route1" type="Car" />
  <vehicle depart="16" id="veh4161" route="route1" type="Car" />
  <vehicle depart="16" id="veh5794" route="route4" type="Car" />
  <vehicle depart="16" id="veh7128" route="route5" type="Car" />
  <vehicle depart="16" id="veh10792" route="route7" type="Car" />
  <vehicle depart="16" id="veh11922" route="route8" type="Car" />
  <vehicle depart="16" id="veh12282" route="route9" type="Car" />
  <vehicle depart="16" id="veh12891" route="route10" type="Car" />
  <vehicle depart="17" id="veh1386" route="route1" type="Car" />
  <vehicle depart="17" id="veh10903" route="route7" type="Car" />
  <vehicle depart="17" id="veh12846" route="route10" type="Car" />
  <vehicle depart="17" id="veh15477" route="route11" type="Car" />
  <vehicle depart="18" id="veh4961" route="route3" type="Car" />
  <vehicle depart="18" id="veh6945" route="route5" type="Car" />
  <vehicle depart="18" id="veh7608" route="route5" type="Car" />
  <vehicle depart="18" id="veh9209" route="route7" type="Car" />
  <vehicle depart="18" id="veh9630" route="route7" type="Car" />
  <vehicle depart="18" id="veh15153" route="route11" type="Car" />
  <vehicle depart="19" id="veh342" route="route0" type="Car" />
  <vehicle depart="19" id="veh1605" route="route1" type="Car" />
  <vehicle depart="19" id="veh6119" route="route5" type="Car" />
  <vehicle depart="19" id="veh6163" route="route5" type="Car" />
  <vehicle depart="19" id="veh7597" route="route5" type="Car" />
  <vehicle depart="19" id="veh9147" route="route7" type="Car" />
  <vehicle depart="19" id="veh10522" route="route7" type="Car" />
  <vehicle depart="20" id="veh5781" route="route4" type="Car" />
  <vehicle depart="20" id="veh10270" route="route7" type="Car" />
  <vehicle depart="20" id="veh11601" route="route7" type="Car" />
  <vehicle depart="20" id="veh13254" route="route10" type="Car" />
  <vehicle depart="20" id="veh13778" route="route10" type="Car" />
  <vehicle depart="20" id="veh15517" route="route11" type="Car" />
  <vehicle depart="20" id="veh16055" route="route11" type="Car" />
  <vehicle depart="21" id="veh6718" route="route5" type="Car" />
  <vehicle depart="21" id="veh10092" route="route7" type="Car" />
  <vehicle depart="21" id="veh13973" route="route11" type="Car" />
  <vehicle depart="22" id="veh14747" route="route11" type="Car" />
  <vehicle depart="22" id="veh15942" route="route11" type="Car" />
  <vehicle depart="23" id="veh2022" route="route1" type="Car" />
  <vehicle depart="23" id="veh2123" route="route1" type="Car" />
  <vehicle depart="23" id="veh6299" route="route5" type="Car" />
  <vehicle depart="23" id="veh11707" route="route8" type="Car" />
  <vehicle depart="23" id="veh14408" route="route11" type="Car" />
  <vehicle depart="24" id="veh3141" route="route1" type="Car" />
  <vehicle depart="24" id="veh11316" route="route7" type="Car" />
  <vehicle depart="24" id="veh11602" route="route7" type="Car" />
  <vehicle depart="24" id="veh11982" route="route8" type="Car" />
  <vehicle depart="24" id="veh12650" route="route10" type="Car" />
  <vehicle depart="25" id="veh3590" route="route1" type="Car" />
  <vehicle depart="25" id="veh5353" route="route4" type="Car" />
  <vehicle depart="25" id="veh14411" route="route11" type="Car" />
  <vehicle depart="25" id="veh15165" route="route11" type="Car" />
  <vehicle depart="26" id="veh6190" route="route5" type="Car" />
  <vehicle depart="26" id="veh12711" route="route10" type="Car" />
  <vehicle depart="26" id="veh15115" route="route11" type="Car" />
  <vehicle depart="27" id="veh2523" route="route1" type="Car" />
  <vehicle depart="27" id="veh4635" route="route2" type="Car" />
  <vehicle depart="27" id="veh10697" route="route7" type="Car" />
  <vehicle depart="27" id="veh13116" route="route10" type="Car" />
  <vehicle depart="28" id="veh13603" route="route10" type="Car" />
  <vehicle depart="29" id="veh1390" route="route1" type="Car" />
  <vehicle depart="29" id="veh5570" route="route4" type="Car" />
  <vehicle depart="29" id="veh8212" route="route5" type="Car" />
  <vehicle depart="29" id="veh8496" route="route6" type="Car" />
  <vehicle depart="29" id="veh9805" route="route7" type="Car" />
  <vehicle depart="29" id="veh9932" route="route7" type="Car" />
  <vehicle depart="29" id="veh10789" route="route7" type="Car" />
  <vehicle depart="29" id="veh13170" route="route10" type="Car" />
  <vehicle depart="29" id="veh16102" route="route11" type="Car" />
  <vehicle depart="30" id="veh4704" route="route2" type="Car" />
  <vehicle depart="30" id="veh4730" route="route2" type="Car" />
  <vehicle depart="30" id="veh4879" route="route3" type="Car" />
  <vehicle depart="30" id="veh6905" route="route5" type="Car" />
  <vehicle depart="30" id="veh7833" route="route5" type="Car" />
  <vehicle depart="30" id="veh10144" route="route7" type="Car" />
  <vehicle depart="30" id="veh12848" route="route10" type="Car" />
  <vehicle depart="30" id="veh13862" route="route10" type="Car" />
  <vehicle depart="31" id="veh6609" route="route5" type="Car" />
  <vehicle depart="31" id="veh13760" route="route10" type="Car" />
  <vehicle depart="31" id="veh15934" route="route11" type="Car" />
  <vehicle depart="32" id="veh12216" route="route9" type="Car" />
  <vehicle depart="33" id="veh3408" route="route1" type="Car" />
  <vehicle depart="33" id="veh3926" route="route1" type="Car" />
  <vehicle depart="33" id="veh9835" route="route7" type="Car" />
  <vehicle depart="33" id="veh12841" route="route10" type="Car" />
  <vehicle depart="33" id="veh13199" route="route10" type="Car" />
  <vehicle depart="34" id="veh1520" route="route1" type="Car" />
  <vehicle depart="34" id="veh2544" route="route1" type="Car" />
  <vehicle depart="34" id="veh6289" route="route5" type="Car" />
  <vehicle depart="34" id="veh10414" route="route7" type="Car" />
  <vehicle depart="34" id="veh11441" route="route7" type="Car" />
  <vehicle depart="35" id="veh8860" route="route7" type="Car" />
  <vehicle depart="35" id="veh16573" route="route12" type="Car" />
  <vehicle depart="36" id="veh247" route="route0" type="Car" />
  <vehicle depart="36" id="veh1934" route="route1" type="Car" />
  <vehicle depart="36" id="veh10358" route="route7" type="Car" />
  <vehicle depart="36" id="veh13355" route="route10" type="Car" />
  <vehicle depart="36" id="veh13562" route="route10" type="Car" />
  <vehicle depart="36" id="veh14459" route="route11" type="Car" />
  <vehicle depart="36" id="veh15639" route="route11" type="Car" />
  <vehicle depart="37" id="veh747" route="route0" type="Car" />
  <vehicle depart="37" id="veh4075" route="route1" type="Car" />
  <vehicle depart="37" id="veh4567" route="route2" type="Car" />
  <vehicle depart="37" id="veh9489" route="route7" type="Car" />
  <vehicle depart="37" id="veh12754" route="route10" type="Car" />
  <vehicle depart="38" id="veh3642" route="route1" type="Car" />
  <vehicle depart="38" id="veh3789" route="route1" type="Car" />
  <vehicle depart="38" id="veh10437" route="route7" type="Car" />
  <vehicle depart="38" id="veh16349" route="route12" type="Car" />
  <vehicle depart="39" id="veh83" route="route0" type="Car" />
  <vehicle depart="39" id="veh5890" route="route5" type="Car" />
  <vehicle depart="39" id="veh6229" route="route5" type="Car" />
  <vehicle depart="39" id="veh6348" route="route5" type="Car" />
  <vehicle depart="39" id="veh8294" route="route5" type="Car" />
  <vehicle depart="39" id="veh10001" route="route7" type="Car" />
  <vehicle depart="39" id="veh10072" route="route7" type="Car" />
  <vehicle depart="39" id="veh13536" route="route10" type="Car" />
  <vehicle depart="39" id="veh15107" route="route11" type="Car" />
  <vehicle depart="39" id="veh16216" route="route12" type="Car" />
  <vehicle depart="40" id="veh1734" route="route1" type="Car" />
  <vehicle depart="40" id="veh12172" route="route8" type="Car" />
  <vehicle depart="40" id="veh16114" route="route11" type="Car" />
  <vehicle depart="41" id="veh3618" route="route1" type="Car" />
  <vehicle depart="41" id="veh4263" route="route1" type="Car" />
  <vehicle depart="41" id="veh4695" route="route2" type="Car" />
  <vehicle depart="41" id="veh5207" route="route4" type="Car" />
  <vehicle depart="41" id="veh6893" route="route5" type="Car" />
  <vehicle depart="41" id="veh8755" route="route6" type="Car" />
  <vehicle depart="41" id="veh9858" route="route7" type="Car" />
  <vehicle depart="42" id="veh9123" route="route7" type="Car" />
  <vehicle depart="42" id="veh15918" route="route11" type="Car" />
  <vehicle depart="43" id="veh2156" route="route1" type="Car" />
  <vehicle depart="43" id="veh9560" route="route7" type="Car" />
  <vehicle depart="43" id="veh13218" route="route10" type="Car" />
  <vehicle depart="44" id="veh2481" route="route1" type="Car" />
  <vehicle depart="44" id="veh4039" route="route1" type="Car" />
  <vehicle depart="44" id="veh4484" route="route2" type="Car" />
  <vehicle depart="44" id="veh5521" route="route4" type="Car" />
  <vehicle depart="44" id="veh6843" route="route5" type="Car" />
  <vehicle depart="45" id="veh280" route="route0" type="Car" />
  <vehicle depart="45" id="veh564" route="route0" type="Car" />
  <vehicle depart="45" id="veh5421" route="route4" type="Car" />
  <vehicle depart="45" id="veh9508" route="route7" type="Car" />
  <vehicle depart="45" id="veh10320" route="route7" type="Car" />
  <vehicle depart="45" id="veh11512" route="route7" type="Car" />
  <vehicle depart="45" id="veh14444" route="route11" type="Car" />
  <vehicle depart="45" id="veh14522" route="route11" type="Car" />
  <vehicle depart="45" id="veh14749" route="route11" type="Car" />
  <vehicle depart="45" id="veh15264" route="route11" type="Car" />
  <vehicle depart="46" id="veh3971" route="route1" type="Car" />
  <vehicle depart="46" id="veh7070" route="route5" type="Car" />
  <vehicle depart="46" id="veh12452" route="route10" type="Car" />
  <vehicle depart="46" id="veh12878" route="route10" type="Car" />
  <vehicle depart="46" id="veh13471" route="route10" type="Car" />
  <vehicle depart="47" id="veh665" route="route0" type="Car" />
  <vehicle depart="47" id="veh1005" route="route0" type="Car" />
  <vehicle depart="47" id="veh1121" route="route0" type="Car" />
  <vehicle depart="47" id="veh7013" route="route5" type="Car" />
  <vehicle depart="47" id="veh7207" route="route5" type="Car" />
  <vehicle depart="47" id="veh7470" route="route5" type="Car" />
  <vehicle depart="47" id="veh10891" route="route7" type="Car" />
  <vehicle depart="48" id="veh2867" route="route1" type="Car" />
  <vehicle depart="48" id="veh5741" route="route4" type="Car" />
  <vehicle depart="48" id="veh9375" route="route7" type="Car" />
  <vehicle depart="49" id="veh3786" route="route1" type="Car" />
  <vehicle depart="49" id="veh4780" route="route2" type="Car" />
  <vehicle depart="49" id="veh8902" route="route7" type="Car" />
  <vehicle depart="49" id="veh9608" route="route7" type="Car" />
  <vehicle depart="49" id="veh9707" route="route7" type="Car" />
  <vehicle depart="49" id="veh11199" route="route7" type="Car" />
  <vehicle depart="49" id="veh12232" route="route9" type="Car" />
  <vehicle depart="50" id="veh2323" route="route1" type="Car" />
  <vehicle depart="50" id="veh4397" route="route2" type="Car" />
  <vehicle depart="50" id="veh6892" route="route5" type="Car" />
  <vehicle depart="50" id="veh7054" route="route5" type="Car" />
  <vehicle depart="51" id="veh3898" route="route1" type="Car" />
  <vehicle depart="51" id="veh11649" route="route7" type="Car" />
  <vehicle depart="51" id="veh15726" route="route11" type="Car" />
  <vehicle depart="52" id="veh99" route="route0" type="Car" />
  <vehicle depart="52" id="veh340" route="route0" type="Car" />
  <vehicle depart="52" id="veh2363" route="route1" type="Car" />
  <vehicle depart="52" id="veh8847" route="route6" type="Car" />
  <vehicle depart="52" id="veh9026" route="route7" type="Car" />
  <vehicle depart="52" id="veh16413" route="route12" type="Car" />
  <vehicle depart="53" id="veh4655" route="route2" type="Car" />
  <vehicle depart="53" id="veh5461" route="route4" type="Car" />
  <vehicle depart="53" id="veh5639" route="route4" type="Car" />
  <vehicle depart="53" id="veh6487" route="route5" type="Car" />
  <vehicle depart="53" id="veh6956" route="route5" type="Car" />
  <vehicle depart="53" id="veh11083" route="route7" type="Car" />
  <vehicle depart="53" id="veh11487" route="route7" type="Car" />
  <vehicle depart="53" id="veh11567" route="route7" type="Car" />
  <vehicle depart="53" id="veh12730" route="route10" type="Car" />
  <vehicle depart="54" id="veh2743" route="route1" type="Car" />
  <vehicle depart="54" id="veh3726" route="route1" type="Car" />
  <vehicle depart="54" id="veh4119" route="route1" type="Car" />
  <vehicle depart="54" id="veh6840" route="route5" type="Car" />
  <vehicle depart="54" id="veh8375" route="route5" type="Car" />
  <vehicle depart="54" id="veh13911" route="route11" type="Car" />
  <vehicle depart="54" id="veh13930" route="route11" type="Car" />
  <vehicle depart="54" id="veh15543" route="route11" type="Car" />
  <vehicle depart="55" id="veh1041" route="route0" type="Car" />
  <vehicle depart="55" id="veh4330" route="route2" type="Car" />
  <vehicle depart="55" id="veh4696" route="route2" type="Car" />
  <vehicle depart="55" id="veh6282" route="route5" type="Car" />
  <vehicle depart="56" id="veh14633" route="route11" type="Car" />
  <vehicle depart="56" id="veh15229" route="route11" type="Car" />
  <vehicle depart="57" id="veh2008" route="route1" type="Car" />
  <vehicle depart="57" id="veh5176" route="route4" type="Car" />
  <vehicle depart="57" id="veh6001" route="route5" type="Car" />
  <vehicle depart="57" id="veh9803" route="route7" type="Car" />
  <vehicle depart="57" id="veh11941" route="route8" type="Car" />
  <vehicle depart="57" id="veh13609" route="route10" type="Car" />
  <vehicle depart="57" id="veh13675" route="route10" type="Car" />
  <vehicle depart="58" id="veh3587" route="route1" type="Car" />
  <vehicle depart="58" id="veh6059" route="route5" type="Car" />
  <vehicle depart="58" id="veh6320" route="route5" type="Car" />
  <vehicle depart="58" id="veh7961" route="route5" type="Car" />
  <vehicle depart="58" id="veh8881" route="route7" type="Car" />
  <vehicle depart="58" id="veh13161" route="route10" type="Car" />
  <vehicle depart="58" id="veh15498" route="route11" type="Car" />
  <vehicle depart="59" id="veh2144" route="route1" type="Car" />
  <vehicle depart="59" id="veh4108" route="route1" type="Car" />
  <vehicle depart="59" id="veh5290" route="route4" type="Car" />
  <vehicle depart="59" id="veh5839" route="route5" type="Car" />
  <vehicle depart="59" id="veh7869" route="route5" type="Car" />
  <vehicle depart="59" id="veh10993" route="route7" type="Car" />
  <vehicle depart="59" id="veh11622" route="route7" type="Car" />
  <vehicle depart="59" id="veh14044" route="route11" type="Car" />
  <vehicle depart="59" id="veh15575" route="route11" type="Car" />
  <vehicle depart="59" id="veh16245" route="route12" type="Car" />
  <vehicle depart="60" id="veh1459" route="route1" type="Car" />
  <vehicle depart="60" id="veh1624" route="route1" type="Car" />
  <vehicle depart="60" id="veh3663" route="route1" type="Car" />
  <vehicle depart="60" id="veh8250" route="route5" type="Car" />
  <vehicle depart="60" id="veh9272" route="route7" type="Car" />
  <vehicle depart="60" id="veh11219" route="route7" type="Car" />
  <vehicle depart="60" id="veh12899" route="route10" type="Car" />
  <vehicle depart="60" id="veh12976" route="route10" type="Car" />
  <vehicle depart="60" id="veh13511" route="route10" type="Car" />
  <vehicle depart="61" id="veh4381" route="route2" type="Car" />
  <vehicle depart="61" id="veh4550" route="route2" type="Car" />
  <vehicle depart="61" id="veh5110" route="route4" type="Car" />
  <vehicle depart="61" id="veh15429" route="route11" type="Car" />
  <vehicle depart="62" id="veh8712" route="route6" type="Car" />
  <vehicle depart="62" id="veh10754" route="route7" type="Car" />
  <vehicle depart="62" id="veh11794" route="route8" type="Car" />
  <vehicle depart="62" id="veh15212" route="route11" type="Car" />
  <vehicle depart="63" id="veh7056" route="route5" type="Car" />
  <vehicle depart="63" id="veh13493" route="route10" type="Car" />
  <vehicle depart="64" id="veh194" route="route0" type="Car" />
  <vehicle depart="64" id="veh195" route="route0" type="Car" />
  <vehicle depart="64" id="veh6240" route="route5" type="Car" />
  <vehicle depart="64" id="veh10409" route="route7" type="Car" />
  <vehicle depart="64" id="veh13209" route="route10" type="Car" />
  <vehicle depart="64" id="veh13220" route="route10" type="Car" />
  <vehicle depart="64" id="veh14769" route="route11" type="Car" />
  <vehicle depart="64" id="veh16319" route="route12" type="Car" />
  <vehicle depart="65" id="veh6208" route="route5" type="Car" />
  <vehicle depart="65" id="veh9500" route="route7" type="Car" />
  <vehicle depart="65" id="veh9913" route="route7" type="Car" />
  <vehicle depart="65" id="veh12051" route="route8" type="Car" />
  <vehicle depart="65" id="veh12357" route="route9" type="Car" />
  <vehicle depart="65" id="veh12658" route="route10" type="Car" />
  <vehicle depart="65" id="veh15713" route="route11" type="Car" />
  <vehicle depart="66" id="veh3695" route="route1" type="Car" />
  <vehicle depart="66" id="veh10734" route="route7" type="Car" />
  <vehicle depart="66" id="veh12796" route="route10" type="Car" />
  <vehicle depart="66" id="veh15848" route="route11" type="Car" />
  <vehicle depart="67" id="veh5488" route="route4" type="Car" />
  <vehicle depart="67" id="veh6405" route="route5" type="Car" />
  <vehicle depart="67" id="veh9998" route="route7" type="Car" />
  <vehicle depart="67" id="veh14571" route="route11" type="Car" />
  <vehicle depart="68" id="veh4759" route="route2" type="Car" />
  <vehicle depart="68" id="veh11445" route="route7" type="Car" />
  <vehicle depart="68" id="veh12813" route="route10" type="Car" />
  <vehicle depart="69" id="veh7365" route="route5" type="Car" />
  <vehicle depart="69" id="veh11284" route="route7" type="Car" />
  <vehicle depart="69" id="veh11909" route="route8" type="Car" />
  <vehicle depart="69" id="veh12235" route="route9" type="Car" />
  <vehicle depart="70" id="veh387" route="route0" type="Car" />
  <vehicle depart="70" id="veh3959" route="route1" type="Car" />
  <vehicle depart="70" id="veh7448" route="route5" type="Car" />
  <vehicle depart="70" id="veh14030" route="route11" type="Car" />
  <vehicle depart="71" id="veh1330" route="route1" type="Car" />
  <vehicle depart="71" id="veh9882" route="route7" type="Car" />
  <vehicle depart="71" id="veh10773" route="route7" type="Car" />
  <vehicle depart="71" id="veh13699" route="route10" type="Car" />
  <vehicle depart="71" id="veh14482" route="route11" type="Car" />
  <vehicle depart="71" id="veh16585" route="route12" type="Car" />
  <vehicle depart="72" id="veh273" route="route0" type="Car" />
  <vehicle depart="72" id="veh956" route="route0" type="Car" />
  <vehicle depart="72" id="veh8183" route="route5" type="Car" />
  <vehicle depart="72" id="veh15513" route="route11" type="Car" />
  <vehicle depart="73" id="veh3135" route="route1" type="Car" />
  <vehicle depart="73" id="veh5136" route="route4" type="Car" />
  <vehicle depart="73" id="veh5150" route="route4" type="Car" />
  <vehicle depart="73" id="veh6756" route="route5" type="Car" />
  <vehicle depart="73" id="veh15670" route="route11" type="Car" />
  <vehicle depart="73" id="veh16752" route="route12" type="Car" />
  <vehicle depart="74" id="veh7634" route="route5" type="Car" />
  <vehicle depart="74" id="veh9678" route="route7" type="Car" />
  <vehicle depart="74" id="veh12679" route="route10" type="Car" />
  <vehicle depart="74" id="veh13527" route="route10" type="Car" />
  <vehicle depart="74" id="veh16590" route="route12" type="Car" />
  <vehicle depart="75" id="veh3142" route="route1" type="Car" />
  <vehicle depart="75" id="veh4533" route="route2" type="Car" />
  <vehicle depart="75" id="veh8952" route="route7" type="Car" />
  <vehicle depart="75" id="veh16437" route="route12" type="Car" />
  <vehicle depart="76" id="veh9941" route="route7" type="Car" />
  <vehicle depart="76" id="veh10768" route="route7" type="Car" />
  <vehicle depart="76" id="veh16023" route="route11" type="Car" />
  <vehicle depart="77" id="veh714" route="route0" type="Car" />
  <vehicle depart="78" id="veh1903" route="route1" type="Car" />
  <vehicle depart="78" id="veh3095" route="route1" type="Car" />
  <vehicle depart="78" id="veh11810" route="route8" type="Car" />
  <vehicle depart="78" id="veh15100" route="route11" type="Car" />
  <vehicle depart="79" id="veh502" route="route0" type="Car" />
  <vehicle depart="79" id="veh9476" route="route7" type="Car" />
  <vehicle depart="80" id="veh8788" route="route6" type="Car" />
  <vehicle depart="80" id="veh9301" route="route7" type="Car" />
  <vehicle depart="80" id="veh13319" route="route10" type="Car" />
  <vehicle depart="81" id="veh4478" route="route2" type="Car" />
  <vehicle depart="81" id="veh9798" route="route7" type="Car" />
  <vehicle depart="81" id="veh10143" route="route7" type="Car" />
  <vehicle depart="81" id="veh12080" route="route8" type="Car" />
  <vehicle depart="81" id="veh14833" route="route11" type="Car" />
  <vehicle depart="82" id="veh560" route="route0" type="Car" />
  <vehicle depart="82" id="veh2307" route="route1" type="Car" />
  <vehicle depart="82" id="veh2665" route="route1" type="Car" />
  <vehicle depart="82" id="veh4860" route="route3" type="Car" />
  <vehicle depart="82" id="veh10863" route="route7" type="Car" />
  <vehicle depart="82" id="veh15380" route="route11" type="Car" />
  <vehicle depart="82" id="veh16295" route="route12" type="Car" />
  <vehicle depart="83" id="veh11975" route="route8" type="Car" />
  <vehicle depart="83" id="veh13464" route="route10" type="Car" />
  <vehicle depart="83" id="veh15633" route="route11" type="Car" />
  <vehicle depart="84" id="veh16533" route="route12" type="Car" />
  <vehicle depart="85" id="veh3532" route="route1" type="Car" />
  <vehicle depart="85" id="veh9185" route="route7" type="Car" />
  <vehicle depart="85" id="veh15002" route="route11" type="Car" />
  <vehicle depart="86" id="veh749" route="route0" type="Car" />
  <vehicle depart="86" id="veh2607" route="route1" type="Car" />
  <vehicle depart="86" id="veh4583" route="route2" type="Car" />
  <vehicle depart="86" id="veh5499" route="route4" type="Car" />
  <vehicle depart="86" id="veh5883" route="route5" type="Car" />
  <vehicle depart="86" id="veh10703" route="route7" type="Car" />
  <vehicle depart="86" id="veh12181" route="route9" type="Car" />
  <vehicle depart="86" id="veh15617" route="route11" type="Car" />
  <vehicle depart="87" id="veh5667" route="route4" type="Car" />
  <vehicle depart="87" id="veh7569" route="route5" type="Car" />
  <vehicle depart="87" id="veh11749" route="route8" type="Car" />
  <vehicle depart="87" id="veh13946" route="route11" type="Car" />
  <vehicle depart="87" id="veh15290" route="route11" type="Car" />
  <vehicle depart="87" id="veh15599" route="route11" type="Car" />
  <vehicle depart="87" id="veh16727" route="route12" type="Car" />
  <vehicle depart="88" id="veh5293" route="route4" type="Car" />
  <vehicle depart="88" id="veh6715" route="route5" type="Car" />