<additional>
    <edgeData id="edge_data" file="test2_edge.xml"></edgeData>
</additional>