<?xml version="1.0" encoding="UTF-8"?>

<!-- generated on 2023-04-05 10:54:09 by Eclipse SUMO netconvert Version 1.15.0
<configuration xmlns:xsi="http://www.w3.org/2001/XMLSchema-instance" xsi:noNamespaceSchemaLocation="http://sumo.dlr.de/xsd/netconvertConfiguration.xsd">

    <input>
        <node-files value="test2.nod.xml"/>
        <edge-files value="test2.edg.xml"/>
        <connection-files value="test2.con.xml"/>
        <tllogic-files value="test2.tll.xml"/>
    </input>

    <output>
        <output-file value="test2.net.xml"/>
    </output>

    <report>
        <verbose value="true"/>
    </report>

</configuration>
-->

<net version="1.9" junctionCornerDetail="5" limitTurnSpeed="5.50" xmlns:xsi="http://www.w3.org/2001/XMLSchema-instance" xsi:noNamespaceSchemaLocation="http://sumo.dlr.de/xsd/net_file.xsd">

    <location netOffset="750.00,130.00" convBoundary="0.00,0.00,1365.00,1820.00" origBoundary="-750.00,-130.00,615.00,1690.00" projParameter="!"/>

    <edge id=":0_0" function="internal">
        <lane id=":0_0_0" index="0" speed="6.51" length="9.03" shape="85.60,1740.40 85.25,1737.95 84.20,1736.20 82.45,1735.15 80.00,1734.80"/>
    </edge>
    <edge id=":0_1" function="internal">
        <lane id=":0_1_0" index="0" speed="60.00" length="24.00" shape="88.80,1740.40 88.80,1716.40"/>
        <lane id=":0_1_1" index="1" speed="60.00" length="24.00" shape="92.00,1740.40 92.00,1716.40"/>
        <lane id=":0_1_2" index="2" speed="60.00" length="24.00" shape="95.20,1740.40 95.20,1716.40"/>
        <lane id=":0_1_3" index="3" speed="60.00" length="24.00" shape="98.40,1740.40 98.40,1716.40"/>
    </edge>
    <edge id=":0_5" function="internal">
        <lane id=":0_5_0" index="0" speed="60.00" length="24.28" shape="117.60,1716.40 117.10,1723.55 116.00,1728.40 114.90,1733.25 114.40,1740.40"/>
        <lane id=":0_5_1" index="1" speed="60.00" length="24.28" shape="114.40,1716.40 113.90,1723.55 112.80,1728.40 111.70,1733.25 111.20,1740.40"/>
        <lane id=":0_5_2" index="2" speed="60.00" length="24.28" shape="111.20,1716.40 110.70,1723.55 109.60,1728.40 108.50,1733.25 108.00,1740.40"/>
        <lane id=":0_5_3" index="3" speed="60.00" length="24.28" shape="108.00,1716.40 107.50,1723.55 106.40,1728.40 105.30,1733.25 104.80,1740.40"/>
    </edge>
    <edge id=":0_9" function="internal">
        <lane id=":0_9_0" index="0" speed="11.89" length="32.62" shape="104.80,1716.40 103.25,1723.05 98.60,1727.80 90.85,1730.65 80.00,1731.60"/>
        <lane id=":0_9_1" index="1" speed="11.84" length="32.30" shape="101.60,1716.40 100.25,1724.45 96.20,1730.20 89.45,1733.65 80.00,1734.80"/>
    </edge>
    <edge id=":0_11" function="internal">
        <lane id=":0_11_0" index="0" speed="6.51" length="9.03" shape="80.00,1722.00 82.45,1721.65 84.20,1720.60 85.25,1718.85 85.60,1716.40"/>
    </edge>
    <edge id=":0_12" function="internal">
        <lane id=":0_12_0" index="0" speed="11.39" length="29.85" shape="80.00,1725.20 89.45,1726.15 96.20,1729.00 100.25,1733.75 101.60,1740.40"/>
        <lane id=":0_12_1" index="1" speed="11.49" length="30.39" shape="80.00,1728.40 90.85,1729.15 98.60,1731.40 103.25,1735.15 104.80,1740.40"/>
    </edge>
    <edge id=":0_0_0" function="internal">
        <lane id=":0_0_0_0" index="0" speed="3.65" length="4.67" shape="101.60,1820.00 100.80,1821.20 100.00,1821.60 99.20,1821.20 98.40,1820.00"/>
    </edge>
    <edge id=":0_1_0" function="internal">
        <lane id=":0_1_0_0" index="0" speed="18.08" length="22.49" shape="85.60,1553.51 87.03,1546.88 90.76,1543.42 95.95,1540.49 101.76,1535.45"/>
        <lane id=":0_1_0_1" index="1" speed="17.35" length="22.49" shape="88.80,1553.51 90.21,1547.52 93.83,1544.53 98.80,1542.04 104.22,1537.50"/>
        <lane id=":0_1_0_2" index="2" speed="16.60" length="22.49" shape="92.00,1553.51 93.38,1548.15 96.90,1545.65 101.64,1543.59 106.67,1539.56"/>
        <lane id=":0_1_0_3" index="3" speed="15.84" length="22.49" shape="95.20,1553.51 96.55,1548.77 99.96,1546.76 104.47,1545.15 109.12,1541.61"/>
    </edge>
    <edge id=":0_1_4" function="internal">
        <lane id=":0_1_4_0" index="0" speed="7.46" length="9.52" shape="118.94,1549.83 118.20,1550.76 117.80,1551.50 117.63,1552.32 117.60,1553.51"/>
        <lane id=":0_1_4_1" index="1" speed="9.18" length="9.52" shape="116.48,1547.78 115.33,1549.23 114.71,1550.37 114.45,1551.65 114.40,1553.51"/>
        <lane id=":0_1_4_2" index="2" speed="10.62" length="9.52" shape="114.03,1545.72 112.47,1547.70 111.62,1549.25 111.27,1550.99 111.20,1553.51"/>
        <lane id=":0_1_4_3" index="3" speed="11.89" length="9.52" shape="111.58,1543.67 109.60,1546.16 108.53,1548.13 108.09,1550.33 108.00,1553.51"/>
        <lane id=":0_1_4_4" index="4" speed="12.73" length="9.52" shape="111.58,1543.67 108.90,1546.30 106.75,1548.06 105.32,1550.09 104.80,1553.51"/>
        <lane id=":0_1_4_5" index="5" speed="13.85" length="9.52" shape="111.58,1543.67 108.12,1546.49 104.90,1547.97 102.53,1549.77 101.60,1553.51"/>
    </edge>
    <edge id=":0_2_0" function="internal">
        <lane id=":0_2_0_0" index="0" speed="3.65" length="4.67" shape="0.00,1731.60 -1.20,1730.80 -1.60,1730.00 -1.20,1729.20 0.00,1728.40"/>
    </edge>
    <edge id=":1_0" function="internal">
        <lane id=":1_0_0" index="0" speed="7.33" length="11.73" shape="543.60,928.00 543.25,924.15 542.20,921.40 540.45,919.75 538.00,919.20"/>
    </edge>
    <edge id=":1_1" function="internal">
        <lane id=":1_1_0" index="0" speed="60.00" length="40.00" shape="546.80,928.00 546.80,888.00"/>
        <lane id=":1_1_1" index="1" speed="60.00" length="40.00" shape="550.00,928.00 550.00,888.00"/>
    </edge>
    <edge id=":1_3" function="internal">
        <lane id=":1_3_0" index="0" speed="12.72" length="37.45" shape="553.20,928.00 554.75,918.55 559.40,911.80 567.15,907.75 578.00,906.40"/>
        <lane id=":1_3_1" index="1" speed="12.72" length="37.45" shape="556.40,928.00 557.75,917.15 561.80,909.40 568.55,904.75 578.00,903.20"/>
    </edge>
    <edge id=":1_5" function="internal">
        <lane id=":1_5_0" index="0" speed="8.10" length="14.57" shape="578.00,922.40 572.75,922.75 569.00,923.80 566.75,925.55 566.00,928.00"/>
    </edge>
    <edge id=":1_6" function="internal">
        <lane id=":1_6_0" index="0" speed="60.00" length="40.13" shape="578.00,919.20 538.00,916.00"/>
        <lane id=":1_6_1" index="1" speed="60.00" length="40.13" shape="578.00,916.00 538.00,912.80"/>
        <lane id=":1_6_2" index="2" speed="60.00" length="40.13" shape="578.00,912.80 538.00,909.60"/>
    </edge>
    <edge id=":1_9" function="internal">
        <lane id=":1_9_0" index="0" speed="12.28" length="34.84" shape="578.00,909.60 568.55,908.25 561.80,904.20 557.75,897.45 556.40,888.00"/>
    </edge>
    <edge id=":1_10" function="internal">
        <lane id=":1_10_0" index="0" speed="7.33" length="11.73" shape="572.40,888.00 572.75,891.85 573.80,894.60 575.55,896.25 578.00,896.80"/>
    </edge>
    <edge id=":1_11" function="internal">
        <lane id=":1_11_0" index="0" speed="60.00" length="40.63" shape="569.20,888.00 568.20,900.69 566.00,909.97 563.80,918.27 562.80,928.00"/>
        <lane id=":1_11_1" index="1" speed="60.00" length="40.63" shape="566.00,888.00 565.00,900.69 562.80,909.97 560.60,918.27 559.60,928.00"/>
    </edge>
    <edge id=":1_13" function="internal">
        <lane id=":1_13_0" index="0" speed="12.72" length="37.45" shape="562.80,888.00 561.25,897.45 556.60,904.20 548.85,908.25 538.00,909.60"/>
        <lane id=":1_13_1" index="1" speed="12.72" length="37.45" shape="559.60,888.00 558.25,898.85 554.20,906.60 547.45,911.25 538.00,912.80"/>
    </edge>
    <edge id=":1_15" function="internal">
        <lane id=":1_15_0" index="0" speed="6.51" length="9.03" shape="538.00,893.60 540.45,893.25 542.20,892.20 543.25,890.45 543.60,888.00"/>
    </edge>
    <edge id=":1_16" function="internal">
        <lane id=":1_16_0" index="0" speed="60.00" length="40.13" shape="538.00,896.80 578.00,900.00"/>
        <lane id=":1_16_1" index="1" speed="60.00" length="40.13" shape="538.00,900.00 578.00,903.20"/>
    </edge>
    <edge id=":1_18" function="internal">
        <lane id=":1_18_0" index="0" speed="12.72" length="37.45" shape="538.00,903.20 547.45,904.75 554.20,909.40 558.25,917.15 559.60,928.00"/>
        <lane id=":1_18_1" index="1" speed="12.72" length="37.45" shape="538.00,906.40 548.85,907.75 556.60,911.80 561.25,918.55 562.80,928.00"/>
    </edge>
    <edge id=":1_0_0" function="internal">
        <lane id=":1_0_0_0" index="0" speed="16.00" length="16.89" shape="566.00,1005.67 565.84,1011.51 565.03,1015.54 563.07,1019.15 559.44,1023.73"/>
        <lane id=":1_0_0_1" index="1" speed="15.08" length="16.89" shape="562.80,1005.67 562.66,1010.84 561.94,1014.42 560.20,1017.62 556.98,1021.67"/>
        <lane id=":1_0_0_2" index="2" speed="14.10" length="16.89" shape="559.60,1005.67 559.48,1010.18 558.85,1013.29 557.33,1016.08 554.53,1019.62"/>
        <lane id=":1_0_0_3" index="3" speed="13.77" length="16.89" shape="559.60,1005.67 559.06,1009.74 557.53,1012.23 555.16,1014.42 552.08,1017.57"/>
    </edge>
    <edge id=":1_0_4" function="internal">
        <lane id=":1_0_4_0" index="0" speed="7.46" length="8.45" shape="542.26,1009.35 543.00,1008.42 543.40,1007.68 543.57,1006.86 543.60,1005.67"/>
        <lane id=":1_0_4_1" index="1" speed="9.18" length="8.45" shape="544.72,1011.40 545.87,1009.95 546.49,1008.80 546.75,1007.52 546.80,1005.67"/>
        <lane id=":1_0_4_2" index="2" speed="10.62" length="8.45" shape="547.17,1013.46 548.73,1011.48 549.58,1009.93 549.93,1008.19 550.00,1005.67"/>
        <lane id=":1_0_4_3" index="3" speed="11.89" length="8.45" shape="549.62,1015.51 551.60,1013.02 552.67,1011.05 553.11,1008.85 553.20,1005.67"/>
        <lane id=":1_0_4_4" index="4" speed="12.73" length="8.45" shape="549.62,1015.51 552.30,1012.88 554.45,1011.11 555.88,1009.08 556.40,1005.67"/>
    </edge>
    <edge id=":1_1_0" function="internal">
        <lane id=":1_1_0_0" index="0" speed="60.00" length="9.88" shape="698.00,916.00 695.31,917.00 694.00,919.20 692.69,921.40 690.00,922.40"/>
        <lane id=":1_1_0_1" index="1" speed="60.00" length="9.88" shape="698.00,912.80 695.31,913.80 694.00,916.00 692.69,918.20 690.00,919.20"/>
        <lane id=":1_1_0_2" index="2" speed="60.00" length="9.88" shape="698.00,909.60 695.31,910.60 694.00,912.80 692.69,915.00 690.00,916.00"/>
        <lane id=":1_1_0_3" index="3" speed="60.00" length="9.88" shape="698.00,909.60 695.54,910.10 694.00,911.20 692.46,912.30 690.00,912.80"/>
        <lane id=":1_1_0_4" index="4" speed="60.00" length="9.88" shape="698.00,909.60 690.00,909.60"/>
    </edge>
    <edge id=":1_1_5" function="internal">
        <lane id=":1_1_5_0" index="0" speed="60.00" length="8.81" shape="690.00,896.80 692.46,897.30 694.00,898.40 695.54,899.50 698.00,900.00"/>
        <lane id=":1_1_5_1" index="1" speed="60.00" length="8.81" shape="690.00,900.00 692.46,900.50 694.00,901.60 695.54,902.70 698.00,903.20"/>
        <lane id=":1_1_5_2" index="2" speed="60.00" length="8.81" shape="690.00,903.20 692.46,903.70 694.00,904.80 695.54,905.90 698.00,906.40"/>
    </edge>
    <edge id=":1_2_0" function="internal">
        <lane id=":1_2_0_0" index="0" speed="41.30" length="16.83" shape="543.60,804.44 544.59,799.48 546.99,796.59 549.92,793.78 552.48,789.08"/>
        <lane id=":1_2_0_1" index="1" speed="40.23" length="16.83" shape="546.80,804.44 547.79,799.77 550.17,797.10 553.04,794.51 555.52,790.08"/>
        <lane id=":1_2_0_2" index="2" speed="39.14" length="16.83" shape="550.00,804.44 550.99,800.07 553.34,797.61 556.17,795.24 558.56,791.09"/>
        <lane id=":1_2_0_3" index="3" speed="38.03" length="16.83" shape="553.20,804.44 554.18,800.36 556.52,798.13 559.29,795.97 561.60,792.10"/>
    </edge>
    <edge id=":1_2_4" function="internal">
        <lane id=":1_2_4_0" index="0" speed="28.21" length="10.54" shape="573.74,796.14 572.97,798.53 572.57,800.21 572.42,801.93 572.40,804.44"/>
        <lane id=":1_2_4_1" index="1" speed="29.86" length="10.54" shape="570.71,795.13 569.84,797.81 569.40,799.69 569.23,801.62 569.20,804.44"/>
        <lane id=":1_2_4_2" index="2" speed="31.43" length="10.54" shape="567.67,794.12 566.71,797.09 566.22,799.18 566.03,801.32 566.00,804.44"/>
        <lane id=":1_2_4_3" index="3" speed="32.92" length="10.54" shape="564.63,793.11 563.58,796.37 563.04,798.66 562.83,801.01 562.80,804.44"/>
        <lane id=":1_2_4_4" index="4" speed="34.38" length="10.54" shape="564.63,793.11 563.02,796.49 561.38,798.66 560.11,800.88 559.60,804.44"/>
    </edge>
    <edge id=":1_3_0" function="internal">
        <lane id=":1_3_0_0" index="0" speed="3.65" length="4.67" shape="428.00,909.60 426.80,908.80 426.40,908.00 426.80,907.20 428.00,906.40"/>
    </edge>
    <edge id=":2_0" function="internal">
        <lane id=":2_0_0" index="0" speed="60.00" length="33.80" shape="735.60,146.80 736.10,136.80 737.20,130.00 738.30,123.20 738.80,113.20"/>
        <lane id=":2_0_1" index="1" speed="60.00" length="33.80" shape="738.80,146.80 739.30,136.80 740.40,130.00 741.50,123.20 742.00,113.20"/>
        <lane id=":2_0_2" index="2" speed="60.00" length="33.80" shape="742.00,146.80 742.50,136.80 743.60,130.00 744.70,123.20 745.20,113.20"/>
        <lane id=":2_0_3" index="3" speed="60.00" length="33.80" shape="745.20,146.80 745.70,136.80 746.80,130.00 747.90,123.20 748.40,113.20"/>
    </edge>
    <edge id=":2_4" function="internal">
        <lane id=":2_4_0" index="0" speed="11.84" length="32.30" shape="748.40,146.80 749.75,138.75 753.80,133.00 760.55,129.55 770.00,128.40"/>
    </edge>
    <edge id=":2_5" function="internal">
        <lane id=":2_5_0" index="0" speed="6.51" length="9.03" shape="770.00,141.20 767.55,141.55 765.80,142.60 764.75,144.35 764.40,146.80"/>
    </edge>
    <edge id=":2_6" function="internal">
        <lane id=":2_6_0" index="0" speed="12.72" length="37.45" shape="770.00,138.00 760.55,136.45 753.80,131.80 749.75,124.05 748.40,113.20"/>
        <lane id=":2_6_1" index="1" speed="12.72" length="37.45" shape="770.00,134.80 759.15,133.45 751.40,129.40 746.75,122.65 745.20,113.20"/>
        <lane id=":2_6_2" index="2" speed="12.76" length="37.73" shape="770.00,131.60 757.75,130.45 749.00,127.00 743.75,121.25 742.00,113.20"/>
    </edge>
    <edge id=":2_9" function="internal">
        <lane id=":2_9_0" index="0" speed="6.51" length="9.03" shape="764.40,113.20 764.75,115.65 765.80,117.40 767.55,118.45 770.00,118.80"/>
    </edge>
    <edge id=":2_10" function="internal">
        <lane id=":2_10_0" index="0" speed="60.00" length="33.60" shape="761.20,113.20 761.20,146.80"/>
        <lane id=":2_10_1" index="1" speed="60.00" length="33.60" shape="758.00,113.20 758.00,146.80"/>
        <lane id=":2_10_2" index="2" speed="60.00" length="33.60" shape="754.80,113.20 754.80,146.80"/>
        <lane id=":2_10_3" index="3" speed="60.00" length="33.60" shape="751.60,113.20 751.60,146.80"/>
    </edge>
    <edge id=":2_0_0" function="internal">
        <lane id=":2_0_0_0" index="0" speed="41.30" length="16.83" shape="764.40,233.56 763.41,238.52 761.01,241.41 758.08,244.22 755.52,248.92"/>
        <lane id=":2_0_0_1" index="1" speed="40.23" length="16.83" shape="761.20,233.56 760.21,238.23 757.83,240.90 754.96,243.49 752.48,247.92"/>
        <lane id=":2_0_0_2" index="2" speed="39.14" length="16.83" shape="758.00,233.56 757.01,237.93 754.66,240.39 751.83,242.76 749.44,246.91"/>
        <lane id=":2_0_0_3" index="3" speed="38.03" length="16.83" shape="754.80,233.56 753.82,237.64 751.48,239.87 748.71,242.03 746.40,245.90"/>
    </edge>
    <edge id=":2_0_4" function="internal">
        <lane id=":2_0_4_0" index="0" speed="28.21" length="10.54" shape="734.26,241.86 735.03,239.47 735.43,237.79 735.58,236.07 735.60,233.56"/>
        <lane id=":2_0_4_1" index="1" speed="29.86" length="10.54" shape="737.29,242.87 738.16,240.19 738.60,238.31 738.77,236.38 738.80,233.56"/>
        <lane id=":2_0_4_2" index="2" speed="31.43" length="10.54" shape="740.33,243.88 741.29,240.91 741.78,238.82 741.97,236.68 742.00,233.56"/>
        <lane id=":2_0_4_3" index="3" speed="32.92" length="10.54" shape="743.37,244.89 744.42,241.63 744.96,239.34 745.17,236.99 745.20,233.56"/>
        <lane id=":2_0_4_4" index="4" speed="34.38" length="10.54" shape="743.37,244.89 744.98,241.51 746.62,239.34 747.89,237.12 748.40,233.56"/>
    </edge>
    <edge id=":2_1_0" function="internal">
        <lane id=":2_1_0_0" index="0" speed="60.00" length="8.60" shape="854.00,138.00 851.54,138.50 850.00,139.60 848.46,140.70 846.00,141.20"/>
        <lane id=":2_1_0_1" index="1" speed="60.00" length="8.60" shape="854.00,134.80 851.54,135.30 850.00,136.40 848.46,137.50 846.00,138.00"/>
        <lane id=":2_1_0_2" index="2" speed="60.00" length="8.60" shape="854.00,131.60 851.54,132.10 850.00,133.20 848.46,134.30 846.00,134.80"/>
        <lane id=":2_1_0_3" index="3" speed="60.00" length="8.60" shape="854.00,131.60 846.00,131.60"/>
    </edge>
    <edge id=":2_1_4" function="internal">
        <lane id=":2_1_4_0" index="0" speed="60.00" length="8.81" shape="846.00,118.80 848.46,119.30 850.00,120.40 851.54,121.50 854.00,122.00"/>
        <lane id=":2_1_4_1" index="1" speed="60.00" length="8.81" shape="846.00,122.00 848.46,122.50 850.00,123.60 851.54,124.70 854.00,125.20"/>
        <lane id=":2_1_4_2" index="2" speed="60.00" length="8.81" shape="846.00,125.20 848.46,125.70 850.00,126.80 851.54,127.90 854.00,128.40"/>
    </edge>
    <edge id=":2_2_0" function="internal">
        <lane id=":2_2_0_0" index="0" speed="3.65" length="4.67" shape="748.40,60.00 749.20,58.80 750.00,58.40 750.80,58.80 751.60,60.00"/>
    </edge>
    <edge id=":3_0" function="internal">
        <lane id=":3_0_0" index="0" speed="6.51" length="9.03" shape="1270.60,146.80 1270.25,144.35 1269.20,142.60 1267.45,141.55 1265.00,141.20"/>
    </edge>
    <edge id=":3_1" function="internal">
        <lane id=":3_1_0" index="0" speed="60.00" length="34.40" shape="1270.60,146.80 1271.60,136.74 1273.80,130.00 1276.00,123.26 1277.00,113.20"/>
        <lane id=":3_1_1" index="1" speed="60.00" length="34.40" shape="1273.80,146.80 1274.80,136.74 1277.00,130.00 1279.20,123.26 1280.20,113.20"/>
        <lane id=":3_1_2" index="2" speed="60.00" length="34.40" shape="1277.00,146.80 1278.00,136.74 1280.20,130.00 1282.40,123.26 1283.40,113.20"/>
    </edge>
    <edge id=":3_4" function="internal">
        <lane id=":3_4_0" index="0" speed="12.30" length="34.99" shape="1280.20,146.80 1281.75,138.75 1286.40,133.00 1294.15,129.55 1305.00,128.40"/>
        <lane id=":3_4_1" index="1" speed="12.28" length="34.84" shape="1283.40,146.80 1284.75,137.35 1288.80,130.60 1295.55,126.55 1305.00,125.20"/>
    </edge>
    <edge id=":3_6" function="internal">
        <lane id=":3_6_0" index="0" speed="9.26" length="19.35" shape="1305.00,134.80 1299.75,135.55 1296.00,137.80 1293.75,141.55 1293.00,146.80"/>
    </edge>
    <edge id=":3_7" function="internal">
        <lane id=":3_7_0" index="0" speed="60.00" length="40.13" shape="1305.00,134.80 1265.00,138.00"/>
        <lane id=":3_7_1" index="1" speed="60.00" length="40.13" shape="1305.00,131.60 1265.00,134.80"/>
    </edge>
    <edge id=":3_9" function="internal">
        <lane id=":3_9_0" index="0" speed="11.84" length="32.30" shape="1305.00,131.60 1295.55,130.45 1288.80,127.00 1284.75,121.25 1283.40,113.20"/>
    </edge>
    <edge id=":3_10" function="internal">
        <lane id=":3_10_0" index="0" speed="7.33" length="11.73" shape="1299.40,113.20 1299.75,117.05 1300.80,119.80 1302.55,121.45 1305.00,122.00"/>
    </edge>
    <edge id=":3_11" function="internal">
        <lane id=":3_11_0" index="0" speed="60.00" length="34.37" shape="1296.20,113.20 1295.20,123.56 1293.00,130.79 1290.80,137.63 1289.80,146.80"/>
        <lane id=":3_11_1" index="1" speed="60.00" length="34.37" shape="1293.00,113.20 1292.00,123.56 1289.80,130.79 1287.60,137.63 1286.60,146.80"/>
    </edge>
    <edge id=":3_13" function="internal">
        <lane id=":3_13_0" index="0" speed="12.30" length="34.99" shape="1289.80,113.20 1288.25,121.25 1283.60,127.00 1275.85,130.45 1265.00,131.60"/>
        <lane id=":3_13_1" index="1" speed="12.28" length="34.84" shape="1286.60,113.20 1285.25,122.65 1281.20,129.40 1274.45,133.45 1265.00,134.80"/>
    </edge>
    <edge id=":3_15" function="internal">
        <lane id=":3_15_0" index="0" speed="6.51" length="9.03" shape="1265.00,118.80 1267.45,118.45 1269.20,117.40 1270.25,115.65 1270.60,113.20"/>
        <lane id=":3_15_1" index="1" speed="8.00" length="14.19" shape="1265.00,122.00 1268.85,121.45 1271.60,119.80 1273.25,117.05 1273.80,113.20"/>
    </edge>
    <edge id=":3_17" function="internal">
        <lane id=":3_17_0" index="0" speed="60.00" length="40.00" shape="1265.00,125.20 1305.00,125.20"/>
    </edge>
    <edge id=":3_18" function="internal">
        <lane id=":3_18_0" index="0" speed="12.28" length="34.84" shape="1265.00,125.20 1274.45,126.55 1281.20,130.60 1285.25,137.35 1286.60,146.80"/>
        <lane id=":3_18_1" index="1" speed="12.30" length="34.99" shape="1265.00,128.40 1275.85,129.55 1283.60,133.00 1288.25,138.75 1289.80,146.80"/>
    </edge>
    <edge id=":3_0_0" function="internal">
        <lane id=":3_0_0_0" index="0" speed="60.00" length="9.88" shape="1277.00,234.00 1276.00,231.31 1273.80,230.00 1271.60,228.69 1270.60,226.00"/>
        <lane id=":3_0_0_1" index="1" speed="60.00" length="9.88" shape="1280.20,234.00 1279.20,231.31 1277.00,230.00 1274.80,228.69 1273.80,226.00"/>
        <lane id=":3_0_0_2" index="2" speed="60.00" length="9.88" shape="1283.40,234.00 1282.40,231.31 1280.20,230.00 1278.00,228.69 1277.00,226.00"/>
        <lane id=":3_0_0_3" index="3" speed="60.00" length="9.88" shape="1283.40,234.00 1282.90,231.54 1281.80,230.00 1280.70,228.46 1280.20,226.00"/>
        <lane id=":3_0_0_4" index="4" speed="60.00" length="9.88" shape="1283.40,234.00 1283.40,226.00"/>
    </edge>
    <edge id=":3_0_5" function="internal">
        <lane id=":3_0_5_0" index="0" speed="60.00" length="8.00" shape="1293.00,226.00 1293.00,234.00"/>
        <lane id=":3_0_5_1" index="1" speed="60.00" length="8.00" shape="1289.80,226.00 1289.80,234.00"/>
        <lane id=":3_0_5_2" index="2" speed="60.00" length="8.00" shape="1286.60,226.00 1286.60,234.00"/>
    </edge>
    <edge id=":3_1_0" function="internal">
        <lane id=":3_1_0_0" index="0" speed="3.65" length="4.67" shape="1335.00,128.40 1336.20,129.20 1336.60,130.00 1336.20,130.80 1335.00,131.60"/>
    </edge>
    <edge id=":3_2_0" function="internal">
        <lane id=":3_2_0_0" index="0" speed="3.65" length="4.67" shape="1283.40,0.00 1284.20,-1.20 1285.00,-1.60 1285.80,-1.20 1286.60,0.00"/>
    </edge>
    <edge id=":3_3_0" function="internal">
        <lane id=":3_3_0_0" index="0" speed="60.00" length="8.81" shape="1189.00,141.20 1186.54,140.70 1185.00,139.60 1183.46,138.50 1181.00,138.00"/>
        <lane id=":3_3_0_1" index="1" speed="60.00" length="8.81" shape="1189.00,138.00 1186.54,137.50 1185.00,136.40 1183.46,135.30 1181.00,134.80"/>
        <lane id=":3_3_0_2" index="2" speed="60.00" length="8.81" shape="1189.00,134.80 1186.54,134.30 1185.00,133.20 1183.46,132.10 1181.00,131.60"/>
    </edge>
    <edge id=":3_3_3" function="internal">
        <lane id=":3_3_3_0" index="0" speed="60.00" length="8.60" shape="1181.00,122.00 1183.46,121.50 1185.00,120.40 1186.54,119.30 1189.00,118.80"/>
        <lane id=":3_3_3_1" index="1" speed="60.00" length="8.60" shape="1181.00,125.20 1183.46,124.70 1185.00,123.60 1186.54,122.50 1189.00,122.00"/>
        <lane id=":3_3_3_2" index="2" speed="60.00" length="8.60" shape="1181.00,128.40 1183.46,127.90 1185.00,126.80 1186.54,125.70 1189.00,125.20"/>
        <lane id=":3_3_3_3" index="3" speed="60.00" length="8.60" shape="1181.00,128.40 1189.00,128.40"/>
    </edge>
    <edge id=":4_0" function="internal">
        <lane id=":4_0_0" index="0" speed="7.33" length="11.73" shape="1270.60,928.00 1270.25,924.15 1269.20,921.40 1267.45,919.75 1265.00,919.20"/>
    </edge>
    <edge id=":4_1" function="internal">
        <lane id=":4_1_0" index="0" speed="60.00" length="40.13" shape="1273.80,928.00 1277.00,888.00"/>
        <lane id=":4_1_1" index="1" speed="60.00" length="40.13" shape="1277.00,928.00 1280.20,888.00"/>
    </edge>
    <edge id=":4_3" function="internal">
        <lane id=":4_3_0" index="0" speed="12.72" length="37.45" shape="1280.20,928.00 1281.75,918.55 1286.40,911.80 1294.15,907.75 1305.00,906.40"/>
        <lane id=":4_3_1" index="1" speed="12.72" length="37.45" shape="1283.40,928.00 1284.75,917.15 1288.80,909.40 1295.55,904.75 1305.00,903.20"/>
    </edge>
    <edge id=":4_5" function="internal">
        <lane id=":4_5_0" index="0" speed="8.10" length="14.57" shape="1305.00,922.40 1299.75,922.75 1296.00,923.80 1293.75,925.55 1293.00,928.00"/>
    </edge>
    <edge id=":4_6" function="internal">
        <lane id=":4_6_0" index="0" speed="60.00" length="40.13" shape="1305.00,919.20 1265.00,916.00"/>
        <lane id=":4_6_1" index="1" speed="60.00" length="40.13" shape="1305.00,916.00 1265.00,912.80"/>
        <lane id=":4_6_2" index="2" speed="60.00" length="40.13" shape="1305.00,912.80 1265.00,909.60"/>
    </edge>
    <edge id=":4_9" function="internal">
        <lane id=":4_9_0" index="0" speed="12.28" length="34.84" shape="1305.00,909.60 1295.55,908.25 1288.80,904.20 1284.75,897.45 1283.40,888.00"/>
    </edge>
    <edge id=":4_10" function="internal">
        <lane id=":4_10_0" index="0" speed="7.33" length="11.73" shape="1299.40,888.00 1299.75,891.85 1300.80,894.60 1302.55,896.25 1305.00,896.80"/>
    </edge>
    <edge id=":4_11" function="internal">
        <lane id=":4_11_0" index="0" speed="60.00" length="40.63" shape="1296.20,888.00 1295.20,900.69 1293.00,909.97 1290.80,918.27 1289.80,928.00"/>
        <lane id=":4_11_1" index="1" speed="60.00" length="40.63" shape="1293.00,888.00 1292.00,900.69 1289.80,909.97 1287.60,918.27 1286.60,928.00"/>
    </edge>
    <edge id=":4_13" function="internal">
        <lane id=":4_13_0" index="0" speed="12.72" length="37.45" shape="1289.80,888.00 1288.25,897.45 1283.60,904.20 1275.85,908.25 1265.00,909.60"/>
        <lane id=":4_13_1" index="1" speed="12.72" length="37.45" shape="1286.60,888.00 1285.25,898.85 1281.20,906.60 1274.45,911.25 1265.00,912.80"/>
    </edge>
    <edge id=":4_15" function="internal">
        <lane id=":4_15_0" index="0" speed="7.33" length="11.73" shape="1265.00,893.60 1268.85,893.25 1271.60,892.20 1273.25,890.45 1273.80,888.00"/>
    </edge>
    <edge id=":4_16" function="internal">
        <lane id=":4_16_0" index="0" speed="60.00" length="40.13" shape="1265.00,896.80 1305.00,900.00"/>
        <lane id=":4_16_1" index="1" speed="60.00" length="40.13" shape="1265.00,900.00 1305.00,903.20"/>
        <lane id=":4_16_2" index="2" speed="60.00" length="40.13" shape="1265.00,903.20 1305.00,906.40"/>
    </edge>
    <edge id=":4_19" function="internal">
        <lane id=":4_19_0" index="0" speed="12.28" length="34.84" shape="1265.00,906.40 1274.45,907.75 1281.20,911.80 1285.25,918.55 1286.60,928.00"/>
    </edge>
    <edge id=":4_0_0" function="internal">
        <lane id=":4_0_0_0" index="0" speed="3.65" length="4.67" shape="1286.60,988.00 1285.80,989.20 1285.00,989.60 1284.20,989.20 1283.40,988.00"/>
    </edge>
    <edge id=":4_1_0" function="internal">
        <lane id=":4_1_0_0" index="0" speed="3.65" length="4.67" shape="1365.00,906.40 1366.20,907.20 1366.60,908.00 1366.20,908.80 1365.00,909.60"/>
    </edge>
    <edge id=":4_2_0" function="internal">
        <lane id=":4_2_0_0" index="0" speed="60.00" length="8.81" shape="1273.80,812.00 1274.30,809.54 1275.40,808.00 1276.50,806.46 1277.00,804.00"/>
        <lane id=":4_2_0_1" index="1" speed="60.00" length="8.81" shape="1277.00,812.00 1277.50,809.54 1278.60,808.00 1279.70,806.46 1280.20,804.00"/>
        <lane id=":4_2_0_2" index="2" speed="60.00" length="8.81" shape="1280.20,812.00 1280.70,809.54 1281.80,808.00 1282.90,806.46 1283.40,804.00"/>
    </edge>
    <edge id=":4_2_3" function="internal">
        <lane id=":4_2_3_0" index="0" speed="60.00" length="9.88" shape="1293.00,804.00 1294.00,806.69 1296.20,808.00 1298.40,809.31 1299.40,812.00"/>
        <lane id=":4_2_3_1" index="1" speed="60.00" length="9.88" shape="1289.80,804.00 1290.80,806.69 1293.00,808.00 1295.20,809.31 1296.20,812.00"/>
        <lane id=":4_2_3_2" index="2" speed="60.00" length="9.88" shape="1286.60,804.00 1287.60,806.69 1289.80,808.00 1292.00,809.31 1293.00,812.00"/>
        <lane id=":4_2_3_3" index="3" speed="60.00" length="9.88" shape="1286.60,804.00 1287.10,806.46 1288.20,808.00 1289.30,809.54 1289.80,812.00"/>
        <lane id=":4_2_3_4" index="4" speed="60.00" length="9.88" shape="1286.60,804.00 1286.60,812.00"/>
    </edge>
    <edge id=":4_3_0" function="internal">
        <lane id=":4_3_0_0" index="0" speed="60.00" length="8.81" shape="1189.00,919.20 1186.54,918.70 1185.00,917.60 1183.46,916.50 1181.00,916.00"/>
        <lane id=":4_3_0_1" index="1" speed="60.00" length="8.81" shape="1189.00,916.00 1186.54,915.50 1185.00,914.40 1183.46,913.30 1181.00,912.80"/>
        <lane id=":4_3_0_2" index="2" speed="60.00" length="8.81" shape="1189.00,912.80 1186.54,912.30 1185.00,911.20 1183.46,910.10 1181.00,909.60"/>
    </edge>
    <edge id=":4_3_3" function="internal">
        <lane id=":4_3_3_0" index="0" speed="60.00" length="9.88" shape="1181.00,900.00 1183.69,899.00 1185.00,896.80 1186.31,894.60 1189.00,893.60"/>
        <lane id=":4_3_3_1" index="1" speed="60.00" length="9.88" shape="1181.00,903.20 1183.69,902.20 1185.00,900.00 1186.31,897.80 1189.00,896.80"/>
        <lane id=":4_3_3_2" index="2" speed="60.00" length="9.88" shape="1181.00,906.40 1183.69,905.40 1185.00,903.20 1186.31,901.00 1189.00,900.00"/>
        <lane id=":4_3_3_3" index="3" speed="60.00" length="9.88" shape="1181.00,906.40 1183.46,905.90 1185.00,904.80 1186.54,903.70 1189.00,903.20"/>